12   
Generated by ForceBalance from qchem.out: Frame 6 of 6
C        1.5038383921   -0.5196986670   -0.1108088910
C        0.6139332351    0.6476990981    0.3045632667
H        1.0398205966   -1.4699607144    0.1530073055
H        2.4796299339   -0.4653108358    0.3742409604
H        1.6616932375   -0.5158369042   -1.1908001501
H        0.5076666730    0.6729225275    1.3943484751
C       -0.7709781808    0.5784064410   -0.3193919883
H        1.0778191634    1.5971187731    0.0208610467
H       -0.7070745585    0.5452000591   -1.4076900998
H       -1.3586711074    1.4595253798   -0.0386999736
O       -1.4849428967   -0.6254495746    0.0497089709
H       -1.3476515490   -0.7279888406    1.0187925647
