12   
Generated by ForceBalance from qchem.out: Frame 12 of 12
C        1.5314845512   -0.5175392611   -0.1505573557
C        0.6363904885    0.6401510714    0.2787285049
H        1.0777412405   -1.4695516296    0.1288626623
H        2.5130772395   -0.4599154732    0.3224164349
H        1.6794626078   -0.5131653324   -1.2326272727
H        0.5305884018    0.6632089134    1.3650710016
C       -0.7558696143    0.5518665127   -0.3212243586
H        1.0895226709    1.5900618227   -0.0214425080
H       -0.7048628114    0.3462849889   -1.3937263674
H       -1.2943836161    1.4934166539   -0.1855764006
O       -1.5128862478   -0.4794267998    0.3698936029
H       -1.7669080807   -1.1469691591   -0.3027396880
