12   
Generated by ForceBalance from qchem.out: Frame 6 of 6
C        1.5196380322   -0.5029695658    0.1338745886
C        0.6127143494    0.6561721133   -0.2778120763
H        1.5621063228   -0.6003985494    1.2207837459
H        2.5356672605   -0.3448423876   -0.2304710901
H        1.1830636696   -1.4573159064   -0.2762543706
H        1.0539527797    1.5992912263    0.0561120935
C       -0.7943042437    0.5654202160    0.2962111339
H        0.5486258297    0.7047213531   -1.3681417785
H       -1.4048871730    1.4026096847   -0.0444616440
H       -0.7446390004    0.6044099676    1.3906958528
O       -1.5095758798   -0.6268636516   -0.1021986487
H       -0.8329582191   -1.3245879512   -0.2365556086
