12   
Generated by ForceBalance from qchem.out: Frame 9 of 9
C        1.4496538055   -0.5674304943   -0.0818248366
C        0.6929393846    0.7458118069    0.1015096420
H        1.1640412926   -1.2971885648    0.6745017856
H        2.5243523691   -0.3973561233    0.0022852707
H        1.2456238428   -1.0094883939   -1.0571005689
H        0.9133543314    1.1357065931    1.0993719113
C       -0.8316060074    0.6094174748   -0.0758918195
H        1.0640749950    1.4932546382   -0.6033740388
H       -1.1234385506    0.9527895108   -1.0683799044
H       -1.3693070821    1.2203798026    0.6546124257
O       -1.3108348404   -0.7561712014   -0.0413985134
H       -1.2835833577   -1.0329411321    0.9022706333
