12   
Generated by ForceBalance from qchem.out: Frame 8 of 8
C        1.8847288387   -0.1096908973   -0.0678605402
C        0.5056961902    0.5145610038    0.1333994478
H        2.0924043617   -0.8602291520    0.6973653563
H        2.6695125950    0.6461035835   -0.0157799212
H        1.9488789561   -0.5973256238   -1.0420141802
H        0.4500914472    1.0442117272    1.0871265697
C       -0.6121240392   -0.5156897263    0.0515075603
H        0.3428476951    1.2604256166   -0.6520943503
H       -0.6627477526   -1.1186932854    0.9591355371
H       -0.4233314986   -1.1902721778   -0.7914519283
O       -1.9216958841    0.0798872700   -0.1068595885
H       -1.7788633709    0.9196948458   -0.5960868202
