12   
Generated by ForceBalance from qchem.out: Frame 8 of 8
C        1.7681253957   -0.3686799831   -0.0104763506
C        0.5655849231    0.5250833629    0.2880369666
H        1.5258632372   -1.4196487521    0.1616443185
H        2.6195796726   -0.1147103630    0.6232216469
H        2.0842011124   -0.2658065906   -1.0504867432
H        0.2743127727    0.4313362130    1.3357384387
C       -0.6681979163    0.1864109210   -0.5630568978
H        0.8456504977    1.5699590433    0.1369048841
H       -0.4414471661   -0.6009889379   -1.2876632045
H       -1.0064017152    1.0581774665   -1.1238118094
O       -1.8085668983   -0.1940097540    0.2500630099
H       -1.7496340799   -1.1678299047    0.3653021886
