12   
Generated by ForceBalance from qchem.out: Frame 8 of 8
C        1.8960558586   -0.1238333379   -0.1002803107
C        0.5322531977    0.5244018361    0.1288994316
H        2.1369808983   -0.8386236381    0.6897918885
H        2.6891190535    0.6250465931   -0.1235946165
H        1.9091812801   -0.6591854815   -1.0511440298
H        0.5357475509    1.1169910751    1.0473953368
C       -0.6005068089   -0.4979568346    0.1570965652
H        0.3164724123    1.2119845839   -0.6914825644
H       -0.7207674558   -0.9446479880    1.1481304983
H       -0.3805538990   -1.3059587799   -0.5430675929
O       -1.8499076652    0.0642005059   -0.3168368565
H       -2.3041981644    0.4345420234    0.4718608801
