12   
Generated by ForceBalance from qchem.out: Frame 12 of 12
C        1.4526357583   -0.5409896726    0.1268765358
C        0.6555015322    0.7384132598   -0.1299107210
H        1.2299001771   -0.9613369580    1.1090476753
H        2.5224279017   -0.3323735948    0.0808912063
H        1.2514813881   -1.3089726121   -0.6218149192
H        1.0290568478    1.5437473657    0.5064167234
C       -0.8547769589    0.6042076390    0.1040492287
H        0.8367769394    1.0537879498   -1.1613000931
H       -1.3946799838    1.3280113886   -0.5132120968
H       -1.0875121609    0.8189034884    1.1493247000
O       -1.3984259077   -0.7156107935   -0.1403931857
H       -0.7231953118   -1.2162561241   -0.6439960361
