12   
Generated by ForceBalance from qchem.out: Frame 8 of 8
C        1.6887790851   -0.4238369861   -0.1010430287
C        0.6094501854    0.5416541149    0.3798472861
H        1.3310353486   -1.4538431987   -0.0524426919
H        2.5910074580   -0.3493848798    0.5084702180
H        1.9628684290   -0.2092996181   -1.1355767976
H        0.3803123562    0.3774568548    1.4342797426
C       -0.6899223297    0.4108200696   -0.4130444941
H        0.9845292609    1.5658300562    0.2906951355
H       -0.4916179199    0.0651183927   -1.4295929322
H       -1.2010372831    1.3741223902   -0.4858877468
O       -1.5740861456   -0.5677985003    0.1986100960
H       -2.2813906657   -0.0564452137    0.6461567416
