12   
Generated by ForceBalance from qchem.out: Frame 12 of 12
C        1.7041112874   -0.4122158771   -0.0162722717
C        0.5880240469    0.5957379117   -0.2744480862
H        2.0272337408   -0.3670940742    1.0251943796
H        2.5730702492   -0.2172000345   -0.6470470978
H        1.3570833999   -1.4268571344   -0.2192799788
H        0.9506596455    1.5991574368   -0.0312930901
C       -0.6695382545    0.3032504249    0.5446971193
H        0.3174286847    0.6103786605   -1.3329142325
H       -1.1842326209    1.2303627168    0.8159677976
H       -0.4221092933   -0.2215761353    1.4677319256
O       -1.5867418721   -0.5733498479   -0.1555942589
H       -2.0097248691   -0.0140492607   -0.8443617247
