12   
Generated by ForceBalance from qchem.out: Frame 9 of 9
C        1.4285914922   -0.5984358036   -0.0588267790
C        0.7009332336    0.7366062909    0.0735472256
H        1.1180234635   -1.2866712834    0.7244067831
H        2.5066144310   -0.4459833102    0.0175681519
H        1.2166888538   -1.0738000605   -1.0169852171
H        0.9575375197    1.1716265274    1.0433329653
C       -0.8285854828    0.6203598155   -0.0492922640
H        1.0617881143    1.4399799713   -0.6804299462
H       -1.1479636782    0.9489920497   -1.0411926587
H       -1.3285211381    1.2595628362    0.6811271452
O       -1.2778230938   -0.7549802343    0.0838146390
H       -1.8824716036   -0.7826210911    0.8559943168
