12   
Generated by ForceBalance from qchem.out: Frame 8 of 8
C        1.5520592257   -0.5053362849    0.0663055708
C        0.6257305129    0.6424347485   -0.3200032858
H        1.7729895368   -0.4789201522    1.1350770904
H        2.4976402429   -0.4501340366   -0.4752891223
H        1.0799042524   -1.4620456862   -0.1554685427
H        1.0833645914    1.6034373560   -0.0650079481
C       -0.7259516499    0.5497623029    0.3716479016
H        0.4691600702    0.6506307443   -1.4031238586
H       -1.3487443713    1.4178797481    0.1332905348
H       -0.5989822157    0.5137380728    1.4544934881
O       -1.4225970715   -0.6760894300    0.0403532815
H       -1.7567603178   -0.5526346523   -0.8765961940
