12   
Generated by ForceBalance from qchem.out: Frame 7 of 7
C        1.8392909843   -0.1474442753   -0.1940373541
C        0.5257953913    0.5253421441    0.2004865421
H        2.1326455871   -0.9027636659    0.5381279966
H        2.6503420966    0.5789354563   -0.2660063758
H        1.7381148163   -0.6401594442   -1.1622370452
H        0.6498578319    1.0825217242    1.1325251682
C       -0.6347171377   -0.4693011872    0.3165330638
H        0.2553542467    1.2495725420   -0.5714609857
H       -0.8280649374   -0.7365504169    1.3605308460
H       -0.4032944120   -1.3884454122   -0.2225586405
O       -1.8471858702    0.0039154847   -0.3175931642
H       -2.0797285484    0.8416568802    0.1433014890
