12   
Generated by ForceBalance from qchem.out: Frame 12 of 12
C        1.7833567696   -0.3268882803    0.0811038152
C        0.5634581447    0.4718694833   -0.3726621545
H        2.0645471324   -0.0685152144    1.1040911097
H        2.6449998409   -0.1342786066   -0.5603379075
H        1.5718151066   -1.3970885051    0.0512822697
H        0.8047088877    1.5378258723   -0.3850351513
C       -0.6761168398    0.2078364482    0.4960450404
H        0.3054208016    0.1933574691   -1.3960907029
H       -0.9909879509    1.1050828753    1.0353478558
H       -0.4599772862   -0.5603196806    1.2401739879
O       -1.7820529367   -0.3292181435   -0.2746718707
H       -2.2967653173    0.4455090793   -0.5907518300
