12   
Generated by ForceBalance from qchem.out: Frame 9 of 9
C        1.7044384897   -0.3704057293    0.2061797611
C        0.5796097254    0.4300393558   -0.4469027768
H        1.9873309114    0.0760620644    1.1606934777
H        2.5924312876   -0.4001031132   -0.4274991953
H        1.3885719076   -1.3978107749    0.3967117881
H        0.9194919534    1.4572356047   -0.6019386011
C       -0.7111442095    0.4436795710    0.3829334999
H        0.3656235836    0.0356433627   -1.4448012253
H       -1.1142124116    1.4592265946    0.4383247126
H       -0.5197822485    0.1054723770    1.4032276557
O       -1.7583996090   -0.4125024197   -0.1421893114
H       -1.4993484172   -0.6391756101   -1.0604946915
