12   
Generated by ForceBalance from qchem.out: Frame 8 of 8
C        1.6307999960   -0.4428539439   -0.1681130587
C        0.5996447929    0.5441903608    0.3720912123
H        1.2485780708   -1.4637025372   -0.1159549031
H        2.5594072486   -0.3989340765    0.4035952684
H        1.8674707659   -0.2219859522   -1.2106319037
H        0.4020899072    0.3682185988    1.4305692934
C       -0.7318346342    0.4704217099   -0.3614218572
H        0.9976446597    1.5591440633    0.2850585333
H       -0.5926002162    0.1831710306   -1.4092035382
H       -1.2317498010    1.4440917690   -0.3424683345
O       -1.5530368340   -0.5055160568    0.3298348828
H       -2.4724309868   -0.3691785616    0.0087455917
