12   
Generated by ForceBalance from qchem.out: Frame 7 of 7
C        1.7187421192   -0.3643643292    0.1573184330
C        0.5880412798    0.4528769556   -0.4655511264
H        2.0057761863    0.0502772087    1.1252071934
H        2.6038238645   -0.3707110003   -0.4810708355
H        1.4177779757   -1.4025765845    0.3168572566
H        0.9326438120    1.4821269285   -0.5951517709
C       -0.6952138175    0.4480081390    0.3734200238
H        0.3383832250    0.0852306969   -1.4628963369
H       -1.1552370159    1.4356026426    0.3927655880
H       -0.4831004408    0.1575900509    1.4080085065
O       -1.7279945123   -0.3995857595   -0.1859126165
H       -1.3438688301   -1.3052595665   -0.2129916693
