12   
Generated by ForceBalance from qchem.out: Frame 12 of 12
C        1.8135492857   -0.1871070363    0.2409216441
C        0.5516461490    0.5050607596   -0.2689081438
H        1.6568523008   -0.5743478719    1.2492393942
H        2.6566977199    0.5049848825    0.2725904543
H        2.0955468640   -1.0251434251   -0.4003769417
H        0.2862152792    1.3202468342    0.4068783852
C       -0.6543203086   -0.4297142821   -0.3248556056
H        0.7313002958    0.9532677252   -1.2480026973
H       -0.4642532237   -1.3320607217    0.2668531018
H       -0.8731886493   -0.7446570521   -1.3502838264
O       -1.7817107534    0.2870774439    0.2370697669
H       -2.5480775553   -0.3288077815    0.1930771015
