12   
Generated by ForceBalance from qchem.out: Frame 8 of 8
C        1.4099483497   -0.6012347392   -0.0123314737
C        0.7042157300    0.7515520793   -0.0645960858
H        1.1815107777   -1.1278245885    0.9130540887
H        2.4905253205   -0.4626097063   -0.0770544823
H        1.1037698442   -1.2416211955   -0.8396107739
H        1.0921521571    1.3891929780    0.7326812158
C       -0.8325878535    0.6570815411    0.0682215434
H        0.9612935213    1.2503931325   -1.0026230661
H       -1.3291153919    1.1408232973   -0.7764733165
H       -1.1644989699    1.1657926591    0.9732967784
O       -1.3231865705   -0.6991216152    0.2181891619
H       -1.4929752824   -1.0336157641   -0.6897567872
