12   
Generated by ForceBalance from qchem.out: Frame 7 of 7
C        1.8556372138   -0.1555830649    0.2003678233
C        0.5509697055    0.5266853615   -0.2070500926
H        1.7555042080   -0.6054053638    1.1893246894
H        2.6812719893    0.5570192339    0.2338382859
H        2.1263288211   -0.9464176348   -0.5024285973
H        0.3057851635    1.2868806328    0.5384104174
C       -0.6314877339   -0.4469288911   -0.2654926853
H        0.6728449436    1.0431474776   -1.1624547752
H       -0.4118281624   -1.3464707640    0.3102875749
H       -0.8443885908   -0.7552151529   -1.2942918445
O       -1.8252076505    0.0794137909    0.3621252641
H       -2.0459389575    0.9011438479   -0.1321263710
