12   
Generated by ForceBalance from qchem.out: Frame 7 of 7
C        1.4747933362   -0.5551412494   -0.1108232547
C        0.6455566221    0.6730579110    0.2482722548
H        1.0152226019   -1.4525319813    0.3031759506
H        2.4880055933   -0.4783640606    0.2862952888
H        1.5492211315   -0.6756656665   -1.1943591670
H        0.5926550183    0.7760804900    1.3344493581
C       -0.7740899673    0.5937356758   -0.2888847826
H        1.1171144571    1.5817762526   -0.1381432940
H       -0.7710386070    0.5600569383   -1.3821644617
H       -1.3505274581    1.4693221573    0.0166982394
O       -1.4621018486   -0.5650466522    0.2520086369
H       -1.5014540495   -1.2288575073   -0.4694465127
