12   
Generated by ForceBalance from qchem.out: Frame 8 of 8
C        1.6704755139   -0.4203977993   -0.0956043524
C        0.5781249761    0.5340860468    0.3776142177
H        1.3118385833   -1.4510674704   -0.0790083805
H        2.5567895815   -0.3588291470    0.5381760494
H        1.9705837518   -0.1830025102   -1.1178001612
H        0.3213018277    0.3431152158    1.4216487044
C       -0.6973270377    0.4262693354   -0.4580393918
H        0.9564231010    1.5598226245    0.3280962548
H       -0.4706131070    0.0932693582   -1.4718645640
H       -1.2015806907    1.3938541379   -0.5321799798
O       -1.6115684696   -0.5613322692    0.0857043624
H       -2.1850928863   -0.0758891342    0.7178360761
