12   
Generated by ForceBalance from qchem.out: Frame 8 of 8
C        1.4299884862   -0.5891653407    0.0242395094
C        0.6876202097    0.7369506862   -0.1238020966
H        1.3009410310   -1.0091125807    1.0221312432
H        2.4970685779   -0.4383890473   -0.1483634262
H        1.0608389796   -1.3200391430   -0.6919229294
H        1.1155247998    1.4850651119    0.5474903024
C       -0.8226290033    0.6381912993    0.1399681812
H        0.8519177416    1.1081678074   -1.1384714610
H       -1.3793590595    1.2089488670   -0.6075466858
H       -1.0674551209    1.0559829845    1.1216434301
O       -1.2354801479   -0.7530577963    0.1226900664
H       -2.1663316971   -0.7592233912   -0.1912759916
