12   
Generated by ForceBalance from qchem.out: Frame 7 of 7
C        1.4537391356   -0.5628605864    0.0375563972
C        0.6856119579    0.7466261394   -0.1168771672
H        1.3489722968   -0.9741682855    1.0445707022
H        2.5180188226   -0.4061438213   -0.1441791123
H        1.0852478595   -1.3030863118   -0.6700183477
H        1.0882045043    1.5126521732    0.5510639603
C       -0.8207277427    0.6002366353    0.1415164396
H        0.8376940249    1.1119011582   -1.1353084366
H       -1.3888734218    1.3041797860   -0.4667913457
H       -1.0478399247    0.8133826429    1.1901425672
O       -1.3273264484   -0.7147055730   -0.1989627059
H       -1.2423915558   -1.2562896907    0.6154025260
