12   
Generated by ForceBalance from qchem.out: Frame 12 of 12
C        1.8007100356   -0.1738033453    0.2862183485
C        0.5667462200    0.5263542108   -0.2784209233
H        1.5941852496   -0.5764265605    1.2797501705
H        2.6426994895    0.5154321026    0.3709074112
H        2.1109301301   -1.0018062733   -0.3546023205
H        0.2787146512    1.3583528627    0.3659207581
C       -0.6479433459   -0.3991174654   -0.3863409200
H        0.8041516810    0.9511213890   -1.2563231243
H       -0.3935640647   -1.4033085840   -0.0344719308
H       -0.9966132884   -0.4897478811   -1.4197224207
O       -1.7131808170    0.1543941556    0.4316751970
H       -2.2476360541   -0.6073116781    0.7473919049
