12   
Generated by ForceBalance from qchem.out: Frame 7 of 7
C        1.8882213333   -0.1205545133   -0.1077463798
C        0.5297355564    0.5153812534    0.1797817937
H        2.0983634242   -0.9331275112    0.5908355628
H        2.6926419091    0.6109183088   -0.0192166755
H        1.9171783438   -0.5328762213   -1.1179861676
H        0.5160952464    0.9856051884    1.1649995364
C       -0.6104757189   -0.4899971788    0.0799925523
H        0.3489149555    1.3118938350   -0.5488692106
H       -0.6551326304   -1.1267612665    0.9635829166
H       -0.4618250427   -1.1370277130   -0.7922580621
O       -1.9069605620    0.1451871225    0.0049457917
H       -1.8787526120    0.7036259757   -0.8040376902
