12   
Generated by ForceBalance from qchem.out: Frame 9 of 9
C        1.4080697031   -0.5851939430    0.0112903536
C        0.6745267721    0.7550154767   -0.0306787173
H        1.1087749868   -1.1718944497    0.8794813867
H        2.4849627946   -0.4192631460    0.0631414996
H        1.2213858331   -1.1822327677   -0.8839632933
H        1.0024283098    1.3558764429    0.8201305470
C       -0.8685028925    0.6454550478   -0.0036015978
H        0.9839683820    1.3004348835   -0.9251708163
H       -1.2950737619    1.1534713845   -0.8743888863
H       -1.2754733520    1.1230372996    0.8868027014
O       -1.3870753933   -0.7041782317    0.0572080653
H       -0.8731379818   -1.2259682371   -0.5970639055
