12   
Generated by ForceBalance from qchem.out: Frame 8 of 8
C        1.4228505694   -0.5882505530   -0.0435849167
C        0.6845393666    0.7421500153    0.0849570914
H        1.0767338386   -1.2957337458    0.7067205493
H        2.4947279526   -0.4322930027    0.0902954774
H        1.2628663453   -1.0397674816   -1.0230921841
H        0.8878243062    1.1509950041    1.0778343723
C       -0.8345733761    0.6331430233   -0.1160835956
H        1.0842081744    1.4645697299   -0.6304111647
H       -1.1176796334    1.0145270736   -1.1022720342
H       -1.3629763750    1.2307897606    0.6309511707
O       -1.2439377551   -0.7567248064   -0.0321977557
H       -2.1618654918   -0.7515636039    0.3177638681
