12   
Generated by ForceBalance from qchem.out: Frame 11 of 11
C        1.4432986603   -0.5570279265    0.0093527886
C        0.6682640766    0.7601836061    0.0367639265
H        1.2276004824   -1.1771505055    0.8825454179
H        2.5154634984   -0.3571184975    0.0199635266
H        1.2240942169   -1.1335228079   -0.8908089194
H        0.9405711544    1.3046765566    0.9431752484
C       -0.8728035076    0.6243899618   -0.0293529037
H        1.0058728748    1.3732902336   -0.8011915531
H       -1.2596341472    1.1361890896   -0.9117137599
H       -1.3212171148    1.0981929949    0.8482451953
O       -1.3902456658   -0.7266626768   -0.1087104060
H       -0.6619139054   -1.3340801141    0.1354045590
