12   
Generated by ForceBalance from qchem.out: Frame 8 of 8
C        1.5737707907   -0.4850673662    0.1589846472
C        0.6142818350    0.5914484075   -0.3372675579
H        1.7666705989   -0.3631705693    1.2263235300
H        2.5303833844   -0.4395332963   -0.3640508698
H        1.1442237285   -1.4756532745    0.0036618036
H        1.0387298046    1.5807786476   -0.1387961994
C       -0.7520322429    0.4995031965    0.3292929865
H        0.4812105102    0.5217191500   -1.4204140194
H       -1.3074692441    1.4357504969    0.2135111875
H       -0.6506016394    0.2995755230    1.3964970114
O       -1.5333387783   -0.6037059622   -0.1922589555
H       -1.8412476269   -0.3120525584   -1.0792863064
