12   
Generated by ForceBalance from qchem.out: Frame 8 of 8
C        1.8913965219   -0.1328111473    0.0091802512
C        0.5181406163    0.5348736112   -0.0113910973
H        2.0111674568   -0.7569034922    0.8972968069
H        2.6902285928    0.6100912250    0.0128563795
H        2.0308385494   -0.7689913008   -0.8672798274
H        0.4045098356    1.1883618083    0.8571547348
C       -0.6121612396   -0.4803016324   -0.0076337799
H        0.4097525340    1.1646324819   -0.8966244453
H       -0.5324142638   -1.1435362755    0.8583067314
H       -0.5664618344   -1.1023477160   -0.9044371285
O       -1.9007915906    0.1863347429   -0.0274686059
H       -2.2678679152    0.1101034561    0.8791907820
