12   
Generated by ForceBalance from qchem.out: Frame 8 of 8
C        1.4463749453   -0.5924174480   -0.0381080852
C        0.6870182965    0.7177106883    0.1453245320
H        1.0507505282   -1.3564447427    0.6272467938
H        2.5064259134   -0.4507802253    0.1791069789
H        1.3613544648   -0.9634787802   -1.0616553830
H        0.8037154416    1.0374848831    1.1838740748
C       -0.8073577680    0.6055646738   -0.1771901446
H        1.1210381435    1.5098960132   -0.4704517071
H       -0.9770576362    0.8455416569   -1.2299537938
H       -1.3880705544    1.3136941479    0.4181651395
O       -1.3087266555   -0.7299963200    0.0951664566
H       -1.6525440791   -1.0781889824   -0.7542726974
