12   
Generated by ForceBalance from qchem.out: Frame 8 of 8
C        1.7645509718   -0.3237387291    0.1775495192
C        0.5689494708    0.6043149888   -0.0264056376
H        1.5139863819   -1.1295414371    0.8704007203
H        2.6201373945    0.2163682768    0.5867149371
H        2.0763581202   -0.7766729263   -0.7658867424
H        0.2786775285    1.0590171476    0.9218656504
C       -0.6651808957   -0.1197690614   -0.5747584200
H        0.8525918260    1.4207368525   -0.6943672767
H       -0.4459788994   -1.1786740811   -0.7356274398
H       -0.9818976851    0.2990960312   -1.5339417524
O       -1.7617235539    0.0229200619    0.3700282827
H       -2.1761906157   -0.8622981998    0.4581894413
