12   
Generated by ForceBalance from qchem.out: Frame 7 of 7
C        1.4955338256   -0.5435812801    0.1145449586
C        0.6693237989    0.6863558419   -0.2449657148
H        1.5088928973   -0.7027638468    1.1946477532
H        2.5268147072   -0.4314773529   -0.2238025037
H        1.0705676707   -1.4332104937   -0.3465362692
H        1.1071114338    1.5910232844    0.1871737389
C       -0.7754788472    0.5757499072    0.2279290809
H        0.6832333239    0.8225468514   -1.3308781067
H       -1.3921953862    1.3774618416   -0.1876612359
H       -0.8141604367    0.6558994880    1.3160340387
O       -1.3497608770   -0.7227399148   -0.0636803367
H       -1.7570366066   -0.6497184962   -0.9553297961
