12   
Generated by ForceBalance from qchem.out: Frame 8 of 8
C        1.5644833212   -0.4865523854    0.1571295867
C        0.6161445549    0.6055259802   -0.3283645065
H        1.7281299658   -0.4036305491    1.2333422450
H        2.5348471619   -0.4169803842   -0.3372993798
H        1.1465783054   -1.4729615059   -0.0476119244
H        1.0432644121    1.5870044052   -0.1006308244
C       -0.7546057780    0.5124307693    0.3162922772
H        0.4826253911    0.5543571256   -1.4103347461
H       -1.3104650103    1.4403967729    0.1521728424
H       -0.6725473247    0.3537718645    1.3968522562
O       -1.4592787060   -0.5979299720   -0.2986676611
H       -2.4146719437   -0.3723610066   -0.2689507305
