12   
Generated by ForceBalance from qchem.out: Frame 8 of 8
C       -1.6673815373    0.4040965816    0.1523016700
C       -0.5789080091   -0.4646678251   -0.4760200085
H       -1.9615462762    0.0038314203    1.1237961494
H       -2.5559716190    0.4458621052   -0.4796573901
H       -1.3230105369    1.4294101748    0.3073516133
H       -0.9660992087   -1.4812230698   -0.5879732614
C        0.7024620995   -0.5109427305    0.3521388354
H       -0.3259211692   -0.1214992790   -1.4823806534
H        1.2457805274   -1.4409202340    0.1801756009
H        0.4675433186   -0.4482624360    1.4200715489
O        1.6412226801    0.5350786457   -0.0046031507
H        1.0995396524    1.2930345192   -0.3176063743
