12   
Generated by ForceBalance from qchem.out: Frame 8 of 8
C        1.8189252424   -0.2049603028    0.2281366164
C        0.5503630311    0.5460236613   -0.1727637383
H        1.6591357498   -0.7679076315    1.1498782318
H        2.6501209139    0.4822489399    0.3946921485
H        2.1232656787   -0.9124819035   -0.5462346057
H        0.2650116548    1.2335845232    0.6257034778
C       -0.6438899889   -0.3855411529   -0.4157267138
H        0.7376657317    1.1577247343   -1.0574156597
H       -0.4266128940   -1.3898970280   -0.0422415753
H       -0.8654247676   -0.4758117016   -1.4805043331
O       -1.8507754834    0.1239865880    0.2129241329
H       -2.0024449166   -0.4288876384    1.0089622566
