12   
Generated by ForceBalance from qchem.out: Frame 9 of 9
C        1.6746606808   -0.4156272636    0.1108466819
C        0.5805628633    0.5235204248   -0.3884437452
H        1.9662622646   -0.1578825742    1.1306470630
H        2.5650785391   -0.3602063683   -0.5177565849
H        1.3230015304   -1.4488449748    0.1105392240
H        0.9556870987    1.5512232637   -0.3617805621
C       -0.6970020065    0.4319867140    0.4443338637
H        0.3238690973    0.3057787904   -1.4267354672
H       -1.2072882331    1.3976879428    0.4828840313
H       -0.4711715184    0.1372954307    1.4711764833
O       -1.5953549484   -0.5766085361   -0.0933626872
H       -2.3153651580   -0.0889195117   -0.5470524501
