12   
Generated by ForceBalance from qchem.out: Frame 6 of 6
C        1.5699774723   -0.4781367915   -0.1243330303
C        0.5944745082    0.5906138343    0.3608075185
H        1.1302667376   -1.4723678999   -0.0307328883
H        2.4993223642   -0.4598778737    0.4471386058
H        1.8158120967   -0.3191424017   -1.1754451318
H        0.4156885299    0.4986511461    1.4370466963
C       -0.7425375620    0.5404113201   -0.3643057341
H        1.0353015146    1.5808637523    0.2118851546
H       -0.6034867104    0.4057513603   -1.4379066367
H       -1.2892669374    1.4764582654   -0.2063131386
O       -1.5742336385   -0.5634635711    0.0720611773
H       -1.3366208492   -0.7243236430    1.0118645613
