12   
Generated by ForceBalance from qchem.out: Frame 8 of 8
C        1.4410921436   -0.5796570820    0.1100975842
C        0.6862219364    0.7198951146   -0.1505609330
H        1.3009266874   -0.9182378953    1.1380142363
H        2.5099817729   -0.4409821313   -0.0605233162
H        1.0833171133   -1.3699556129   -0.5464846631
H        1.0858778692    1.5321459179    0.4622365704
C       -0.8171020022    0.6024501891    0.1195150566
H        0.8498662215    1.0130453369   -1.1922156931
H       -1.3837880777    1.3451461476   -0.4480675156
H       -1.0112219170    0.7789804768    1.1788883662
O       -1.3330635616   -0.7316918984   -0.1126708064
H       -1.6110565534   -0.7623304848   -1.0552320836
