12   
Generated by ForceBalance from qchem.out: Frame 8 of 8
C        1.5424298399   -0.5185839347    0.1145345809
C        0.6217413007    0.6229846992   -0.3049426905
H        1.7329806082   -0.4889499579    1.1895572675
H        2.5041364717   -0.4652800918   -0.3980702002
H        1.0889605582   -1.4817173853   -0.1256646747
H        1.0837647901    1.5814814276   -0.0486810712
C       -0.7437387176    0.5466908630    0.3579167394
H        0.4687810284    0.6178222848   -1.3857612544
H       -1.2945253758    1.4769270357    0.2034877407
H       -0.6496160719    0.3882900665    1.4357373891
O       -1.5466918848   -0.4989152482   -0.2527916815
H       -1.5614862635   -1.2495193901    0.3793037791
