12   
Generated by ForceBalance from qchem.out: Frame 8 of 8
C        1.6083333025   -0.4736102093    0.1116497570
C        0.6266175716    0.5972254633   -0.3531496235
H        1.8246595114   -0.3607961730    1.1757003357
H        2.5521043501   -0.4111321155   -0.4326620177
H        1.1884433562   -1.4680427520   -0.0457725221
H        1.0507245031    1.5880134151   -0.1610557983
C       -0.7152004874    0.4934565596    0.3540706312
H        0.4514866080    0.5250585646   -1.4283310507
H       -1.2868012717    1.4166155815    0.2290264461
H       -0.5782487764    0.3281806639    1.4260691183
O       -1.4635045573   -0.6315561618   -0.1842546655
H       -2.2941885350   -0.2637371069   -0.5532806786
