12   
Generated by ForceBalance from qchem.out: Frame 8 of 8
C        1.8557522557   -0.1528735556    0.1748218032
C        0.5339341509    0.4978934738   -0.2259361773
H        1.7985923005   -0.5421594958    1.1928368800
H        2.6754618536    0.5661184607    0.1344135947
H        2.1099514583   -0.9834987159   -0.4876523569
H        0.3004994349    1.3034860719    0.4734739954
C       -0.6338447392   -0.4760857057   -0.1805935949
H        0.6050202083    0.9503306595   -1.2167754941
H       -0.4683902187   -1.2307473965    0.5967199183
H       -0.7504793461   -0.9998681570   -1.1346097623
O       -1.8220399962    0.2898216739    0.1370896234
H       -2.5895783735   -0.2879740413   -0.0739621544
