12   
Generated by ForceBalance from qchem.out: Frame 6 of 6
C        1.8235515408   -0.1149783811    0.2524459239
C        0.5443830989    0.4739768835   -0.3389619941
H        1.6804886246   -0.3628083420    1.3054224563
H        2.6540600803    0.5888163250    0.1784856593
H        2.1130533496   -1.0287784549   -0.2700417910
H        0.2971541013    1.3840279358    0.2170561047
C       -0.6426672437   -0.4952502392   -0.2549997451
H        0.7101773261    0.7880019145   -1.3716821514
H       -0.4010696396   -1.3090935790    0.4364014003
H       -0.8604491852   -0.9408415678   -1.2272113608
O       -1.8755922835    0.1154610718    0.2017100677
H       -1.6301973626    0.9804022449    0.5935181072
