12   
Generated by ForceBalance from qchem.out: Frame 12 of 12
C        1.4347250181   -0.5622013107   -0.0034327989
C        0.6708569746    0.7611283787   -0.0485087607
H        1.1888182749   -1.1333112422    0.8922803549
H        2.5086686427   -0.3716701763    0.0016917063
H        1.2292687533   -1.1846934160   -0.8775584545
H        1.0190670208    1.3862993854    0.7761985776
C       -0.8692861847    0.6309868288    0.0353382837
H        0.9380290585    1.2901333190   -0.9658271520
H       -1.3269072356    1.1025533829   -0.8398461166
H       -1.2511878295    1.1407652784    0.9197134547
O       -1.3779256619   -0.7203650455    0.1447260411
H       -0.7403275951   -1.3016839639   -0.3211757288
