12   
Generated by ForceBalance from qchem.out: Frame 8 of 8
C        1.8526972629   -0.1349617015    0.2111931250
C        0.5443076760    0.5055405008   -0.2463106208
H        1.7583544126   -0.5114740503    1.2312588528
H        2.6719422705    0.5856888008    0.1917838293
H        2.1322096458   -0.9729544105   -0.4312705262
H        0.2769341687    1.3137055701    0.4370859211
C       -0.6255098695   -0.4755853828   -0.2461953541
H        0.6638386156    0.9547445009   -1.2340937292
H       -0.3752052997   -1.3663991235    0.3405436258
H       -0.8755404839   -0.8046933567   -1.2599771095
O       -1.7547853599    0.2000208827    0.3612141243
H       -2.4975491483   -0.4455657262    0.3528179034
