12   
Generated by ForceBalance from qchem.out: Frame 8 of 8
C        1.4234979578   -0.5867401214   -0.0253370985
C        0.6876552602    0.7411381540    0.1360962007
H        1.0709911974   -1.3238861794    0.6947142313
H        2.4939577235   -0.4453986888    0.1330855552
H        1.2742623653   -1.0040989443   -1.0212035116
H        0.8520343388    1.1048787173    1.1544577384
C       -0.8250776968    0.6461565033   -0.1415162244
H        1.1210106007    1.4935735173   -0.5267117545
H       -1.0441839913    1.0148557535   -1.1436246342
H       -1.3940352937    1.2571542603    0.5649133769
O       -1.3375882632   -0.7073873180   -0.1659996036
H       -1.3779921041   -1.0028676212    0.7715121315
