12   
Generated by ForceBalance from qchem.out: Frame 7 of 7
C        1.4580352093   -0.5580529731    0.0879057077
C        0.6446568285    0.6883139562   -0.2441853529
H        1.4990318710   -0.7196774262    1.1668062698
H        2.4809935178   -0.4642797574   -0.2799537140
H        1.0055837910   -1.4405487703   -0.3608845477
H        1.1125268954    1.5819565244    0.1791809048
C       -0.7887004383    0.6057527202    0.2684749602
H        0.6319000759    0.8319180466   -1.3294798640
H       -1.3975269374    1.4232275784   -0.1299590802
H       -0.8001708722    0.6793019968    1.3569794559
O       -1.4073256457   -0.6742287346   -0.0039877339
H       -1.6217529173   -0.6716002958   -0.9645228930
