12   
Generated by ForceBalance from qchem.out: Frame 8 of 8
C        1.8745587798   -0.1559676203    0.1638418521
C        0.5542281849    0.5368666013   -0.1681078148
H        1.8203365547   -0.6400688684    1.1407767158
H        2.6993987614    0.5579381675    0.1876599530
H        2.1205047439   -0.9218601357   -0.5752545164
H        0.3249028129    1.2697399853    0.6079972641
C       -0.6185461023   -0.4388972548   -0.2255633918
H        0.6303392882    1.0875592350   -1.1076067001
H       -0.4302892077   -1.2817398071    0.4450598165
H       -0.7517656576   -0.8442723394   -1.2315770194
O       -1.8495766061    0.2301690790    0.1607647056
H       -2.1913903262   -0.2462683166    0.9465166413
