12   
Generated by ForceBalance from qchem.out: Frame 12 of 12
C        1.8239346940   -0.1380828289   -0.2535751220
C        0.5525798631    0.5227099834    0.2756219963
H        2.1400452321   -0.9555951281    0.3973568484
H        2.6467940325    0.5759631200   -0.3164215039
H        1.6536751978   -0.5485610826   -1.2502007418
H        0.7482746738    0.9682787759    1.2541374241
C       -0.6340936976   -0.4505985228    0.3574821071
H        0.2693904557    1.3388308686   -0.3931003356
H       -0.9557156271   -0.5959446983    1.3938083829
H       -0.3632535109   -1.4274699992   -0.0435729968
O       -1.7598473864   -0.0392505370   -0.4550743168
H       -2.0275466792    0.8418633599   -0.1093111247
