12   
Generated by ForceBalance from qchem.out: Frame 9 of 9
C        1.4084889934   -0.5990990224    0.0745958458
C        0.6890608560    0.7323935217   -0.1159660149
H        1.2540146138   -0.9962343323    1.0800686002
H        2.4824601600   -0.4754466990   -0.0746096683
H        1.0379621929   -1.3354451747   -0.6349505944
H        1.1039441719    1.4978978831    0.5450515029
C       -0.8233545542    0.6458593025    0.1183244739
H        0.8717693546    1.0764261695   -1.1370953802
H       -1.3543983488    1.3820473887   -0.4892115789
H       -1.0472598295    0.8620804074    1.1660949615
O       -1.3364132278   -0.6705208855   -0.2181271680
H       -1.7354629504   -1.0325774626    0.6008106825
