12   
Generated by ForceBalance from qchem.out: Frame 8 of 8
C        1.8584657776   -0.1553748962    0.1530250365
C        0.5223989779    0.5232081377   -0.1429850771
H        1.8173827555   -0.6738806275    1.1120581388
H        2.6697110993    0.5727874301    0.1959175515
H        2.1097617228   -0.8896116964   -0.6153569923
H        0.2957863015    1.2230098594    0.6655611571
C       -0.6335575056   -0.4704891252   -0.2203581022
H        0.5821455796    1.1059736000   -1.0661232556
H       -0.4757572175   -1.2918330756    0.4796796069
H       -0.7158006139   -0.8977125630   -1.2256991652
O       -1.8968637643    0.1068795470    0.1875834251
H       -1.9441821633    0.9853128828   -0.2527926345
