12   
Generated by ForceBalance from qchem.out: Frame 8 of 8
C        1.4308523191   -0.5789598991    0.1202815296
C        0.6838234896    0.7213580819   -0.1550340221
H        1.3409958430   -0.8724774885    1.1690347531
H        2.4929458922   -0.4712688126   -0.1052745352
H        1.0238292156   -1.3815838682   -0.4915261501
H        1.1142265510    1.5505285374    0.4138512848
C       -0.8024994655    0.6301603281    0.1704907106
H        0.7958752156    0.9746768379   -1.2123052615
H       -1.3510947217    1.4633145451   -0.2754800577
H       -0.9479224235    0.6781097910    1.2533140344
O       -1.3619784079   -0.6073053789   -0.3440311228
H       -1.7149198676   -1.0981556146    0.4278874269
