12   
Generated by ForceBalance from qchem.out: Frame 8 of 8
C        1.8972055041   -0.1409246728   -0.0385859861
C        0.5223259887    0.5210261543    0.0106526852
H        2.0579963219   -0.7788393517    0.8330412213
H        2.6915777911    0.6066046979   -0.0559682869
H        2.0024562921   -0.7611279426   -0.9312315335
H        0.4419344358    1.1708567661    0.8846734750
C       -0.5996274858   -0.4966350870    0.0640089163
H        0.3702948394    1.1504166746   -0.8684061188
H       -0.5058216045   -1.1340627888    0.9498946604
H       -0.5593318826   -1.1425123235   -0.8187579955
O       -1.8543841077    0.2274180538    0.1079301769
H       -2.5220993389   -0.3431485013   -0.3317724226
