12   
Generated by ForceBalance from qchem.out: Frame 8 of 8
C        1.4331394192   -0.6015076524   -0.0008655809
C        0.7117447017    0.7437385492    0.0247553005
H        1.1671457321   -1.2068097591    0.8643409741
H        2.5130306160   -0.4426777407    0.0074396962
H        1.1740741417   -1.1708549662   -0.8923717941
H        1.0174034656    1.2929025846    0.9186166805
C       -0.8258470303    0.6321964509   -0.0037173372
H        1.0421304590    1.3438898710   -0.8259426080
H       -1.2316944014    1.1347607054   -0.8855815206
H       -1.2572438025    1.1179056530    0.8742690717
O       -1.2454347253   -0.7580398926   -0.0494137713
H       -1.9736364642   -0.8508680952    0.6015352511
