12   
Generated by ForceBalance from qchem.out: Frame 8 of 8
C        1.8687369250   -0.1291090568    0.1769265230
C        0.5413699085    0.5271323801   -0.1981141709
H        1.7968090950   -0.5971311581    1.1599487795
H        2.6772699334    0.6029553248    0.2085139486
H        2.1473418427   -0.9017682816   -0.5429410340
H        0.2799323453    1.2619954484    0.5663227224
C       -0.6140586447   -0.4778008578   -0.2653657842
H        0.6384684693    1.0697395367   -1.1418875443
H       -0.3580073042   -1.3798646440    0.2917204761
H       -0.8314301929   -0.7770158870   -1.2951648733
O       -1.8121009183    0.0043267675    0.3908380225
H       -2.1997230102    0.6762044987   -0.2140428869
