12   
Generated by ForceBalance from qchem.out: Frame 8 of 8
C        1.7312786408   -0.3931382719    0.0988653052
C        0.6019098494    0.5134230405   -0.3864162205
H        2.0109493784   -0.1482054217    1.1253678669
H        2.6214287476   -0.2898271863   -0.5240821832
H        1.4282693637   -1.4422525060    0.0745725690
H        0.9428546005    1.5513442891   -0.3458740116
C       -0.6841479416    0.3701562122    0.4324056529
H        0.3514663785    0.3039118945   -1.4273314540
H       -1.1313763922    1.3487099277    0.6161079496
H       -0.4874994668   -0.0892562818    1.4044859788
O       -1.6912896221   -0.3822570345   -0.2979830429
H       -1.7258863477   -1.2757481115    0.1068334105
