12   
Generated by ForceBalance from qchem.out: Frame 8 of 8
C        1.8661902320   -0.1002596881    0.1574582257
C        0.5193088677    0.5008498144   -0.2391571231
H        1.8414147314   -0.4509209525    1.1905919231
H        2.6677462842    0.6344624723    0.0685071684
H        2.1222710666   -0.9507342102   -0.4777705336
H        0.3022666068    1.3357687325    0.4348216715
C       -0.6240191104   -0.5089069260   -0.1322694894
H        0.5586452996    0.9238138426   -1.2449536704
H       -0.3834136296   -1.2522181681    0.6369364169
H       -0.7817523447   -1.0408686725   -1.0703809882
O       -1.8975262913    0.1005634821    0.1811947473
H       -1.7137129773    0.7414241540    0.9033556932
