12   
Generated by ForceBalance from qchem.out: Frame 12 of 12
C        1.4884225661   -0.5341875684    0.1520210970
C        0.6460509407    0.6726600058   -0.2479823033
H        1.5297094345   -0.6353891040    1.2386573100
H        2.5111602755   -0.4361521605   -0.2156259096
H        1.0591192891   -1.4477399012   -0.2569986165
H        1.0844184091    1.5927137669    0.1497348698
C       -0.7831731225    0.5723475365    0.2461116515
H        0.6262045449    0.7710333279   -1.3357361620
H       -1.3567960661    1.4559858131   -0.0535438037
H       -0.8052974028    0.5059720117    1.3398312672
O       -1.3571764670   -0.6215253903   -0.3389519822
H       -2.2824836839   -0.6717188585   -0.0090475065
