12   
Generated by ForceBalance from qchem.out: Frame 12 of 12
C        1.7832209786   -0.3270389876   -0.0811480455
C        0.5632774640    0.4711490113    0.3735019316
H        1.5714886170   -1.3972526331   -0.0532216399
H        2.6446466270   -0.1356633119    0.5609546646
H        2.0648497443   -0.0669797381   -1.1035869928
H        0.3047537115    0.1908886293    1.3963303299
C       -0.6759828400    0.2088545602   -0.4961811980
H        0.8047193543    1.5370366043    0.3878387101
H       -0.4596645923   -0.5580346950   -1.2415637407
H       -0.9904786881    1.1070985627   -1.0340401947
O       -1.7823374664   -0.3293427791    0.2731418147
H       -2.2970467367    0.4449210665    0.5903608762
