12   
Generated by ForceBalance from qchem.out: Frame 7 of 7
C        1.4462945081   -0.5645489921   -0.0036744541
C        0.6900072061    0.7613543722   -0.0466534133
H        1.2978090592   -1.0850168367    0.9449937280
H        2.5175827643   -0.3914177319   -0.1160305883
H        1.1143225319   -1.2232687134   -0.8042566414
H        1.0478088527    1.4202429249    0.7482308899
C       -0.8421954558    0.6090382707    0.0675092738
H        0.9307414645    1.2595995935   -0.9883597554
H       -1.3486322397    1.2035214703   -0.6917454353
H       -1.1888304784    0.9601809522    1.0440313362
O       -1.3191438965   -0.7410164919   -0.1484323893
H       -1.0939305373   -1.2389612364    0.6682424410
