12   
Generated by ForceBalance from qchem.out: Frame 8 of 8
C        1.8739807351   -0.1291076068    0.1184711389
C        0.5145931753    0.5185946801   -0.1378511855
H        1.8731318992   -0.6504345003    1.0770665545
H        2.6689700402    0.6177405896    0.1404873610
H        2.1219872735   -0.8560874389   -0.6581150137
H        0.2836303155    1.2065004497    0.6784040660
C       -0.6163896968   -0.5053296329   -0.1895591961
H        0.5371637126    1.1097633406   -1.0572712302
H       -0.4159108008   -1.3126650588    0.5161673518
H       -0.7122204735   -0.9507884478   -1.1847405056
O       -1.8798930187    0.0429012668    0.2567096320
H       -2.2003166077    0.6164844830   -0.4754114208
