12   
Generated by ForceBalance from qchem.out: Frame 8 of 8
C        1.6396244530   -0.4347908296    0.1812261098
C        0.5923228962    0.5178492471   -0.3892264763
H        1.8927710013   -0.1537181833    1.2046804230
H        2.5573884413   -0.4207264083   -0.4090508942
H        1.2595519098   -1.4578050172    0.1963897325
H        0.9820948757    1.5393124687   -0.3513662215
C       -0.7347575107    0.4660545993    0.3676008349
H        0.4084134650    0.3032515729   -1.4459747704
H       -1.2169156614    1.4497562728    0.3532411144
H       -0.5871584545    0.1800889538    1.4091098547
O       -1.6541725928   -0.5148128702   -0.1710345309
H       -1.6235471853   -0.3977712496   -1.1464124091
