12   
Generated by ForceBalance from qchem.out: Frame 8 of 8
C        1.5824248272   -0.4950403146    0.1049053204
C        0.6342811550    0.6259442899   -0.3075947191
H        1.7653880235   -0.4719674490    1.1813990089
H        2.5455425619   -0.4094192574   -0.4006779189
H        1.1532708737   -1.4655883272   -0.1483071607
H        1.0681163447    1.5948292031   -0.0413240452
C       -0.7297360604    0.5047529076    0.3486258642
H        0.4859847087    0.6266424347   -1.3892159102
H       -1.3027508905    1.4266338351    0.2195978119
H       -0.6295783134    0.3195803589    1.4214058377
O       -1.4801483972   -0.5619776735   -0.2941573727
H       -1.6860189194   -1.2248376146    0.3992198866
