12   
Generated by ForceBalance from qchem.out: Frame 8 of 8
C        1.8871804062   -0.1381070284    0.0733438362
C        0.5232262210    0.5344845136   -0.0657512716
H        1.9368801458   -0.7277790158    0.9908515831
H        2.6881351483    0.6019268293    0.1066750577
H        2.0881168530   -0.8077177579   -0.7659130424
H        0.3442821405    1.1872081750    0.7910199740
C       -0.6119932059   -0.4742508386   -0.1158378822
H        0.4888095641    1.1647276455   -0.9567028154
H       -0.4589338444   -1.2349197896    0.6552626351
H       -0.6469731483   -0.9848180353   -1.0830673502
O       -1.8681742331    0.2175730976    0.1098522414
H       -2.3767648560   -0.3259919909    0.7487885131
