12   
Generated by ForceBalance from qchem.out: Frame 8 of 8
C        1.5632775845   -0.4728588778    0.1989932053
C        0.6081231039    0.5878716854   -0.3411064797
H        1.7355914071   -0.3212393223    1.2657192228
H        2.5286017794   -0.4363750472   -0.3083550331
H        1.1448421337   -1.4718633385    0.0669554250
H        1.0315151058    1.5817963920   -0.1684183027
C       -0.7680053269    0.5259601312    0.3056369107
H        0.4919748148    0.4935303245   -1.4257551419
H       -1.3127391362    1.4573974931    0.1168138250
H       -0.6899264223    0.3913321664    1.3854011418
O       -1.5637464868   -0.5845431356   -0.1782890162
H       -1.2710073274   -0.7428055357   -1.1028622175
