12   
Generated by ForceBalance from qchem.out: Frame 12 of 12
C       -1.8173834622    0.1429700186    0.2638208993
C       -0.5454222637   -0.4596921566   -0.3300152812
H       -1.6697575700    0.3792055485    1.3186110037
H       -2.6573633333   -0.5488250910    0.1839769697
H       -2.0942220938    1.0648560206   -0.2514509338
H       -0.3079833454   -1.3674764914    0.2330991405
C        0.6542476820    0.4914156177   -0.2418105442
H       -0.7141735186   -0.7687357797   -1.3639289188
H        0.4527710655    1.2868707965    0.4790095070
H        0.8465990447    0.9617372787   -1.2105490438
O        1.8755058477   -0.1455640782    0.2128010355
H        1.7302680785   -1.1129209516    0.1386809435
