12   
Generated by ForceBalance from qchem.out: Frame 8 of 8
C        1.4695477668   -0.5535565530    0.1407913794
C        0.6610453512    0.6873325932   -0.2207501810
H        1.4888178676   -0.7064798819    1.2225285040
H        2.5015736593   -0.4662346709   -0.2022231466
H        1.0277210118   -1.4358987245   -0.3210673283
H        1.1162200311    1.5835224528    0.2118396927
C       -0.7798486164    0.5988023310    0.2510266945
H        0.6575871977    0.8225219831   -1.3048578874
H       -1.3392536340    1.4918853097   -0.0390528018
H       -0.8172882236    0.5192010016    1.3410975750
O       -1.4259782413   -0.5483906172   -0.3634023756
H       -1.7172605460   -1.1343923019    0.3671991560
