12   
Generated by ForceBalance from qchem.out: Frame 9 of 9
C        1.4083227029   -0.5996555499    0.0370288389
C        0.6902889411    0.7391128188   -0.1078030725
H        1.2395021791   -1.0363901732    1.0216446113
H        2.4827978553   -0.4662420020   -0.1004817575
H        1.0508644133   -1.3133319389   -0.7026671551
H        1.1053455546    1.4689995544    0.5910584486
C       -0.8301139538    0.6470091834    0.1173652534
H        0.8908108035    1.1295753464   -1.1095169860
H       -1.3741461104    1.2738191715   -0.5923561320
H       -1.0753447546    1.0032426957    1.1195732020
O       -1.3229803746   -0.7178723223    0.0777149571
H       -1.7819167806   -0.8276804697   -0.7832351242
