12   
Generated by ForceBalance from qchem.out: Frame 7 of 7
C        1.5242495847   -0.5172749737    0.1293944389
C        0.6273850406    0.6417386357   -0.2936573126
H        1.6538290695   -0.5304773693    1.2135866798
H        2.5120847136   -0.4357128436   -0.3269944754
H        1.0821826524   -1.4668808989   -0.1702260720
H        1.0768907009    1.5949227730    0.0012320781
C       -0.7553314479    0.5519420179    0.3216405536
H        0.5196852250    0.6575437221   -1.3803331291
H       -1.3663347738    1.4022983022    0.0047821791
H       -0.6953843686    0.5662412609    1.4154898875
O       -1.3570297886   -0.6934607328   -0.1169942443
H       -2.3264541364   -0.5383981492   -0.1492212294
