12   
Generated by ForceBalance from qchem.out: Frame 12 of 12
C        1.4479395779   -0.5518226284    0.0679360765
C        0.6654814640    0.7559503746   -0.0520716128
H        1.2061795713   -1.0884733251    0.9874952257
H        2.5188228575   -0.3448441587    0.0778172900
H        1.2638341558   -1.2138520985   -0.7807581188
H        0.9981340670    1.4463209845    0.7254303448
C       -0.8701530255    0.6172430601    0.0403153362
H        0.9303853684    1.2183933525   -1.0057538924
H       -1.3496588602    1.2412622334   -0.7170338780
H       -1.2098336480    0.9669196368    1.0182962894
O       -1.3984383842   -0.7234837140   -0.1109401384
H       -0.6397687160   -1.3257745885   -0.2515442972
