12   
Generated by ForceBalance from qchem.out: Frame 6 of 6
C        1.5011657588   -0.5153588022   -0.1217216384
C        0.6133514488    0.6492492029    0.3084408529
H        1.0485450270   -1.4710336798    0.1433642581
H        2.4825580300   -0.4590819694    0.3515889405
H        1.6453561086   -0.5076823633   -1.2035603013
H        0.5180718497    0.6693173880    1.3993304347
C       -0.7784525255    0.5854259744   -0.2997549248
H        1.0750977740    1.5993555521    0.0246479141
H       -0.7262867996    0.5740095815   -1.3897605826
H       -1.3622680556    1.4606201930    0.0051568624
O       -1.4944446039   -0.6191541203    0.0675842956
H       -1.1609287744   -0.8713808951    0.9573663168
