12   
Generated by ForceBalance from qchem.out: Frame 11 of 11
C        1.4611039838   -0.5356926418    0.1097736814
C        0.6324654674    0.6977313651   -0.2472961174
H        1.4066308441   -0.7472714358    1.1793016893
H        2.5085528461   -0.3819462337   -0.1536555248
H        1.1227702838   -1.4268836551   -0.4196052270
H        1.0787631678    1.5911757716    0.1967118055
C       -0.8202029083    0.6145403118    0.2092386792
H        0.6594237971    0.8450286863   -1.3314421646
H       -1.4058859964    1.4114322409   -0.2588591814
H       -0.8790321451    0.7442589875    1.2924946465
O       -1.4545143931   -0.6576784235   -0.0676904899
H       -0.8825737925   -1.1249572334   -0.7131138520
