12   
Generated by ForceBalance from qchem.out: Frame 7 of 7
C        1.8237344146   -0.1102965197   -0.2612538958
C        0.5362933915    0.4451222819    0.3443956363
H        2.1206405930   -1.0395107748    0.2290865984
H        2.6473410355    0.5980644627   -0.1587911078
H        1.6904443641   -0.3225058713   -1.3236297241
H        0.6931733917    0.7168329478    1.3902524283
C       -0.6464512494   -0.5253365433    0.2145491376
H        0.2755111847    1.3749346684   -0.1694146731
H       -0.8980410317   -0.9884625538    1.1682729121
H       -0.3899679160   -1.3276666324   -0.4869007551
O       -1.8691663605    0.1117333275   -0.2245407709
H       -1.6097820463    0.6991734586   -0.9686049529
