12   
Generated by ForceBalance from qchem.out: Frame 8 of 8
C        1.5484868663   -0.5041482637    0.0763980725
C        0.6219258946    0.6384513043   -0.3257289262
H        1.7685222806   -0.4625166032    1.1447450282
H        2.4942287587   -0.4563243163   -0.4655592598
H        1.0781679322   -1.4651663837   -0.1305466116
H        1.0790604011    1.6026202295   -0.0829252219
C       -0.7327029640    0.5569953198    0.3612042164
H        0.4685933151    0.6349818973   -1.4098696122
H       -1.3503661652    1.4232499604    0.1004498097
H       -0.6163717096    0.5381584282    1.4453616899
O       -1.4352155703   -0.6687899336    0.0473769770
H       -1.5508799045   -0.6630391021   -0.9301360288
