12   
Generated by ForceBalance from qchem.out: Frame 7 of 7
C        1.6884193212   -0.4208669071   -0.1204283337
C        0.6049455984    0.5249179354    0.3894158513
H        1.3280041553   -1.4510342540   -0.1166962869
H        2.5858453398   -0.3722777189    0.4986407127
H        1.9704340285   -0.1647000832   -1.1431378913
H        0.3821171605    0.3257165282    1.4403508277
C       -0.6937855748    0.4159582359   -0.4104178134
H        0.9750044710    1.5533687097    0.3379683602
H       -0.4987124072    0.0863788031   -1.4311657632
H       -1.2028062359    1.3834864746   -0.4638459332
O       -1.5946178393   -0.5754946185    0.1426394330
H       -1.9750864016   -0.1627420858    0.9494732482
