12   
Generated by ForceBalance from qchem.out: Frame 12 of 12
C        1.8311076061   -0.2245582182    0.1523717820
C        0.5468021153    0.5694453824   -0.0776782848
H        1.7081498731   -0.9123643006    0.9905375765
H        2.6695056060    0.4365869974    0.3774333277
H        2.0987978102   -0.8132034595   -0.7278561417
H        0.2970699982    1.1176512346    0.8329082219
C       -0.6528987610   -0.3297465828   -0.3948637568
H        0.6946240741    1.3126601532   -0.8651706832
H       -0.4482251119   -1.3489599468   -0.0625923213
H       -0.8606756206   -0.3709007293   -1.4674862926
O       -1.8387965747    0.0578366770    0.3448257477
H       -2.3134044652    0.7106492672   -0.2156359028
