12   
Generated by ForceBalance from qchem.out: Frame 6 of 6
C        1.7828092659   -0.1667187245    0.2804142272
C        0.5460232723    0.5199626944   -0.2964159398
H        1.5695558063   -0.5675410889    1.2726851720
H        2.6195689513    0.5284250435    0.3669090561
H        2.1003331105   -0.9949750958   -0.3556590242
H        0.2748932593    1.3578134753    0.3520364391
C       -0.6610804687   -0.4246476947   -0.4138854120
H        0.7842148610    0.9488803084   -1.2724979088
H       -0.4193674464   -1.4153844188   -0.0264136064
H       -0.9557622905   -0.5410370831   -1.4618217319
O       -1.8149288225    0.0045758666    0.3514523482
H       -1.7735063614    0.9849855251    0.3820137186
