12   
Generated by ForceBalance from qchem.out: Frame 8 of 8
C        1.8762267119   -0.1408272143   -0.1462336636
C        0.5297962942    0.5046719430    0.1726003025
H        2.1192564556   -0.9321607599    0.5666384499
H        2.6818475666    0.5942619117   -0.1126275377
H        1.8635598555   -0.5819525874   -1.1444303117
H        0.5587682934    1.0145260804    1.1373617610
C       -0.6171033263   -0.4943528707    0.1455737809
H        0.3052128449    1.2640219812   -0.5794581420
H       -0.7558432831   -0.9648655815    1.1240634571
H       -0.4114232580   -1.2886644824   -0.5809768897
O       -1.8080194006    0.2272878524   -0.2547952145
H       -2.5711263754   -0.3534038358   -0.0358017737
