12   
Generated by ForceBalance from qchem.out: Frame 12 of 12
C        1.8321088357   -0.1447751248    0.2457682521
C        0.5601543445    0.5295258987   -0.2637561452
H        1.6667822071   -0.5741375445    1.2353419473
H        2.6566499513    0.5664143149    0.3186264182
H        2.1445628301   -0.9503744863   -0.4218733320
H        0.2718259480    1.3290289516    0.4212059762
C       -0.6287340369   -0.4394164067   -0.3573836250
H        0.7535203300    0.9960424342   -1.2330909632
H       -0.3474249435   -1.4210297916    0.0271017677
H       -0.9595972824   -0.5760839188   -1.3902706395
O       -1.7414659362   -0.0250482601    0.4766148954
H       -2.3028823306    0.5539640220   -0.0843016292
