12   
Generated by ForceBalance from qchem.out: Frame 7 of 7
C        1.8618286368   -0.1178035541   -0.1759960295
C        0.5192466050    0.4805786759    0.2390362675
H        2.1200770842   -0.9782621693    0.4446543491
H        2.6654655721    0.6139155535   -0.0816448833
H        1.8275040058   -0.4524321548   -1.2139777636
H        0.5680264899    0.8959232812    1.2477504171
C       -0.6245634829   -0.5275918136    0.1310458431
H        0.3012112034    1.3202822886   -0.4294057617
H       -0.7621880610   -1.0800567111    1.0611923475
H       -0.3924827765   -1.2526425299   -0.6574713617
O       -1.9050838146    0.0788678218   -0.1650049745
H       -1.7083616574    0.8835118461   -0.6922845257
