12   
Generated by ForceBalance from qchem.out: Frame 12 of 12
C        1.8143400849   -0.3156764000    0.0497360266
C        0.5656291686    0.4818290248   -0.3225773561
H        2.1039133563   -0.1384922189    1.0878158344
H        2.6614159616   -0.0430145495   -0.5819467386
H        1.6381810904   -1.3866021602   -0.0691354570
H        0.7705373846    1.5525309802   -0.2633350332
C       -0.6503318460    0.1264384118    0.5424531592
H        0.2948762530    0.2742196250   -1.3595324880
H       -0.8707908527    0.9186789764    1.2598771037
H       -0.4589303916   -0.7859715756    1.1136752005
O       -1.8462943053   -0.0399560740   -0.2659293663
H       -2.0136267442   -1.0052320677   -0.3165403582
