12   
Generated by ForceBalance from qchem.out: Frame 8 of 8
C        1.8826090947   -0.1420262139    0.0814744770
C        0.5217497025    0.5208788766   -0.1184014651
H        1.9353229515   -0.6315421960    1.0557562842
H        2.6882437508    0.5918180843    0.0304444603
H        2.0726612390   -0.8983123278   -0.6835003694
H        0.3461141370    1.2532493249    0.6725712862
C       -0.6184297719   -0.4801679070   -0.0714720910
H        0.4870930917    1.0635243729   -1.0653271974
H       -0.4956739386   -1.1558508132    0.7810977670
H       -0.6344820982   -1.0904941886   -0.9786692950
O       -1.8651033483    0.2454215484    0.0896508993
H       -2.5062345304   -0.1461201918   -0.5418341312
