12   
Generated by ForceBalance from qchem.out: Frame 8 of 8
C        1.8920610900   -0.1239242947   -0.0439479332
C        0.5104178576    0.5140171312    0.0831682043
H        2.0778713959   -0.8340037092    0.7649926202
H        2.6786788344    0.6312071398   -0.0106432123
H        1.9831584007   -0.6627309169   -0.9889287604
H        0.4373412231    1.0949774714    1.0059094464
C       -0.6051191198   -0.5181865367    0.0390212407
H        0.3435603259    1.2088326750   -0.7424326841
H       -0.6234755846   -1.1224284144    0.9500832921
H       -0.4478582187   -1.1966272846   -0.8028128374
O       -1.8881463314    0.1190999408   -0.1917316231
H       -2.3635691318    0.1138304847    0.6668047552
