12   
Generated by ForceBalance from qchem.out: Frame 8 of 8
C        1.8835361250   -0.1113681975   -0.0837982175
C        0.5114878509    0.5182637089    0.1476891912
H        2.0941190008   -0.8827653258    0.6598255543
H        2.6755823762    0.6361417597   -0.0215842263
H        1.9350496932   -0.5755798465   -1.0703720509
H        0.4677310121    1.0233529046    1.1145951064
C       -0.6157159538   -0.5024054971    0.0561513688
H        0.3409653528    1.2861756505   -0.6134808343
H       -0.6758565860   -1.1079453129    0.9605627422
H       -0.4393618584   -1.1783170508   -0.7885634334
O       -1.9161096579    0.1159382775   -0.0728867619
H       -1.8736253915    0.6457808848   -0.9003097873
