12   
Generated by ForceBalance from qchem.out: Frame 8 of 8
C        1.7036714062   -0.3833311256    0.1692681419
C        0.5832207651    0.4729943328   -0.4155407388
H        1.9858306711   -0.0301973520    1.1630047639
H        2.5941541743   -0.3549730236   -0.4611537074
H        1.3858951515   -1.4237998565    0.2582163751
H        0.9239517262    1.5090119569   -0.4854804061
C       -0.7065318122    0.4115982763    0.4012195979
H        0.3394926367    0.1511075913   -1.4290413542
H       -1.1319996449    1.4114735363    0.5309812289
H       -0.5257972448   -0.0061253380    1.3974711292
O       -1.6450228055   -0.4215087182   -0.3274201440
H       -2.5283317120   -0.2559007852    0.0722316415
