12   
Generated by ForceBalance from qchem.out: Frame 8 of 8
C        1.8928521205   -0.1368606650    0.0516610726
C        0.5212580044    0.5224844757   -0.0696037031
H        1.9679398348   -0.7086680548    0.9785704103
H        2.6876320635    0.6105235679    0.0532412056
H        2.0804797714   -0.8200962682   -0.7796773371
H        0.3562975367    1.1933665957    0.7760604650
C       -0.6056754032   -0.4923691140   -0.0708410013
H        0.4599443452    1.1303396882   -0.9743929762
H       -0.4456092761   -1.2318871005    0.7219340603
H       -0.6503569534   -1.0273065997   -1.0257619252
O       -1.8344249533    0.2331615876    0.1712114108
H       -2.5546490368   -0.4368718439    0.1675722809
