12   
Generated by ForceBalance from qchem.out: Frame 7 of 7
C        1.4342365957   -0.5708351975   -0.0885782417
C        0.6542288886    0.7121914702    0.1834218185
H        1.0300825498   -1.3938526495    0.5000050644
H        2.4848803182   -0.4511564906    0.1790846259
H        1.3928814412   -0.8480409757   -1.1453876310
H        0.7054349050    0.9313806755    1.2525885949
C       -0.8130782186    0.6161588791   -0.2287352018
H        1.1096416376    1.5590678265   -0.3374278964
H       -0.9078293045    0.7249288254   -1.3146436590
H       -1.4017277239    1.4057889785    0.2380558734
O       -1.4336241714   -0.6223250956    0.1898459129
H       -1.0896460012   -1.3114953501   -0.4201052077
