12   
Generated by ForceBalance from qchem.out: Frame 7 of 7
C        1.8839647977   -0.1181398444    0.0635069809
C        0.5004649366    0.5151422317   -0.0655966702
H        1.9548108131   -0.7025829800    0.9821958015
H        2.6645760521    0.6433980656    0.0864987438
H        2.0915444681   -0.7848201308   -0.7759570833
H        0.3114427113    1.1561079700    0.7997736225
C       -0.6085925943   -0.5239161917   -0.1283763940
H        0.4546434359    1.1510319067   -0.9546565227
H       -0.4787199188   -1.2690674860    0.6582311253
H       -0.5895893736   -1.0433575660   -1.0926574939
O       -1.9208052886    0.0460239330    0.0971350122
H       -1.8749156275    0.9700439650   -0.2347830576
