12   
Generated by ForceBalance from qchem.out: Frame 8 of 8
C        1.4324975790   -0.5759638023    0.0880346291
C        0.6799033926    0.7352212222   -0.1217571204
H        1.2887291230   -0.9600026499    1.0994616778
H        2.5019405233   -0.4250478704   -0.0686339606
H        1.0801217320   -1.3330462840   -0.6087271418
H        1.0722496327    1.5173546731    0.5330369720
C       -0.8248824385    0.6154322046    0.1107523036
H        0.8556535073    1.0708288441   -1.1470292184
H       -1.3675763625    1.3507227328   -0.4906155608
H       -1.0604468119    0.8059834022    1.1638331058
O       -1.2429691253   -0.7311039309   -0.2234779036
H       -2.2230369249   -0.6989848981   -0.2980837746
