12   
Generated by ForceBalance from qchem.out: Frame 6 of 6
C        1.5883678404   -0.4555416448    0.1745233176
C        0.5975463188    0.5723981963   -0.3681918348
H        1.8086278410   -0.2545525002    1.2241665113
H        2.5278033052   -0.4318704081   -0.3798311022
H        1.1862138915   -1.4684321037    0.1097947985
H        1.0202877644    1.5747268376   -0.2550224730
C       -0.7479666501    0.5292469635    0.3401053251
H        0.4320930980    0.4297039650   -1.4404393110
H       -1.3256027924    1.4287890991    0.1116908577
H       -0.6085224137    0.4803972585    1.4234501489
O       -1.5581005054   -0.6078093244   -0.0558640677
H       -1.0326799498   -1.1091074403   -0.7159947603
