12   
Generated by ForceBalance from qchem.out: Frame 7 of 7
C        1.4958556531   -0.5288296496    0.1116680215
C        0.6224197967    0.6679392824   -0.2575286768
H        1.5422658709   -0.6641334736    1.1949317650
H        2.5156579124   -0.3943153402   -0.2515087174
H        1.1152200777   -1.4498302302   -0.3329388995
H        1.0801920071    1.5889966020    0.1149077104
C       -0.7900505413    0.5757180533    0.3030135074
H        0.5612838340    0.7564126017   -1.3446772702
H       -1.3925368929    1.4233233782   -0.0235430410
H       -0.7604802073    0.5827529896    1.3988969292
O       -1.5076944538   -0.5887736733   -0.1645285404
H       -0.9829844302   -1.3647789406    0.1326446868
