12   
Generated by ForceBalance from qchem.out: Frame 8 of 8
C        1.9057567222   -0.1258843021    0.0294488612
C        0.5252949469    0.5181581919   -0.0753930600
H        2.0016336511   -0.6853686510    0.9619198164
H        2.6937208001    0.6283005305    0.0080713185
H        2.0854204851   -0.8183700036   -0.7959750448
H        0.3722040901    1.2069041557    0.7580978660
C       -0.5942044274   -0.5077461864   -0.0275096823
H        0.4400511383    1.1068879035   -0.9915914016
H       -0.4250901670   -1.2087885532    0.7946980179
H       -0.6337031052   -1.0881646158   -0.9530186529
O       -1.8587025038    0.1598786913    0.2251960011
H       -2.4419895451   -0.0358045116   -0.5388393150
