12   
Generated by ForceBalance from qchem.out: Frame 6 of 6
C        1.7221046194   -0.3854171816   -0.0642499603
C        0.5632104267    0.5124949996    0.3639942911
H        1.4224679718   -1.4348725171   -0.0488573273
H        2.5829984853   -0.2679901135    0.5961091333
H        2.0411757091   -0.1415863563   -1.0788332535
H        0.3020588745    0.3125723428    1.4071746572
C       -0.6860408469    0.3415360659   -0.5115324175
H        0.8894955225    1.5551576197    0.3297710889
H       -0.4540207586   -0.2055181122   -1.4261895849
H       -1.0816732528    1.3209703163   -0.7999264217
O       -1.7484061111   -0.4086975434    0.1288052916
H       -1.6623711906   -0.2356148430    1.0911942690
