12   
Generated by ForceBalance from qchem.out: Frame 12 of 12
C        1.7537499221   -0.1636131351    0.3448870637
C        0.5780325400    0.4901668761   -0.3765602657
H        1.4732455752   -0.4423775077    1.3623310650
H        2.6082665830    0.5128098578    0.4036104838
H        2.0770533048   -1.0667831372   -0.1762851286
H        0.2888457659    1.4188560999    0.1177661245
C       -0.6616339865   -0.3999892387   -0.4280956924
H        0.8828292739    0.7536339088   -1.3924256357
H       -0.4108819007   -1.4384520587   -0.1868686113
H       -1.1141914196   -0.3881604251   -1.4250234178
O       -1.6064447632    0.1275105384    0.5375188157
H       -2.3986134908   -0.4548023037    0.4933478319
