12   
Generated by ForceBalance from qchem.out: Frame 8 of 8
C        1.4309859861   -0.5754896082    0.1151188002
C        0.6813140894    0.7251753879   -0.1526971056
H        1.3529788065   -0.8698458339    1.1648230922
H        2.4907581250   -0.4697755502   -0.1214278142
H        1.0185477812   -1.3773071371   -0.4948196301
H        1.1132977716    1.5517599460    0.4187520423
C       -0.8053194256    0.6284838698    0.1756394428
H        0.7896267200    0.9816678723   -1.2093960905
H       -1.3573367084    1.4523479246   -0.2804422917
H       -0.9569343676    0.6859530037    1.2573232938
O       -1.3819992053   -0.6015530101   -0.3356563730
H       -1.5090930897   -1.1903813652    0.4384738109
