12   
Generated by ForceBalance from qchem.out: Frame 8 of 8
C        1.4228388244   -0.5880830524    0.0436520418
C        0.6844293802    0.7422744107   -0.0849639385
H        1.2582054968   -1.0423468202    1.0210928496
H        2.4952832332   -0.4312274310   -0.0845506575
H        1.0808725938   -1.2937600079   -0.7102715611
H        1.0839382779    1.4646787997    0.6305071129
C       -0.8347104290    0.6329690080    0.1157233887
H        0.8878251634    1.1512245358   -1.0777758654
H       -1.3631141430    1.2304272794   -0.6314637497
H       -1.1181753296    1.0143197370    1.1018223491
O       -1.2436812280   -0.7570045489    0.0315987787
H       -2.1615280134   -0.7520782667   -0.3185767403
