12   
Generated by ForceBalance from qchem.out: Frame 8 of 8
C        1.7725365492   -0.1813291982   -0.3035776360
C        0.5680653043    0.5042861992    0.3370184873
H        2.0811976791   -1.0556782910    0.2732039999
H        2.6262626444    0.4958061378   -0.3651216816
H        1.5322087202   -0.5132641643   -1.3153761052
H        0.8361436124    0.8603785594    1.3340932369
C       -0.6632008844   -0.4004253571    0.4130081955
H        0.2830559971    1.3819288196   -0.2454053012
H       -0.9879987447   -0.5549769656    1.4470557547
H       -0.4443287492   -1.3834326692   -0.0164743277
O       -1.7228324697    0.2412639197   -0.3423181712
H       -2.4109033554   -0.4460303868   -0.4907390783
