12   
Generated by ForceBalance from qchem.out: Frame 7 of 7
C        1.6589849234   -0.4301201870   -0.0841746705
C        0.5743547991    0.5440635723    0.3671001428
H        1.2868144840   -1.4557766376   -0.0579242550
H        2.5412786167   -0.3713084369    0.5553914511
H        1.9688433566   -0.2090174908   -1.1068662140
H        0.3247238391    0.3846385494    1.4194094747
C       -0.7035246654    0.4330832524   -0.4649546314
H        0.9602694995    1.5652700099    0.2935567524
H       -0.4900025337    0.0777461801   -1.4729662869
H       -1.1932938964    1.4091289843   -0.5496328719
O       -1.6408509940   -0.5263966880    0.0807745474
H       -1.8529909874   -0.1990491918    0.9833773247
