12   
Generated by ForceBalance from qchem.out: Frame 8 of 8
C        1.8879881175   -0.1204537097   -0.0029478179
C        0.5039952114    0.5231831651   -0.0480575803
H        2.0210624223   -0.6968177189    0.9146140138
H        2.6743020388    0.6344845155   -0.0421728724
H        2.0302343226   -0.7971232427   -0.8475646895
H        0.3998978520    1.2255209954    0.7854297238
C       -0.6121025730   -0.5051316167    0.0373318931
H        0.3784495924    1.0997627991   -0.9673851607
H       -0.5018520602   -1.1026806022    0.9497312211
H       -0.5819756474   -1.1845202314   -0.8151569605
O       -1.9262135438    0.0970382701   -0.0047953491
H       -1.8847976330    0.8665832586    0.6063083483
