12   
Generated by ForceBalance from qchem.out: Frame 7 of 7
C        1.7183177926   -0.3722273602    0.1363181133
C        0.5684253036    0.4459163885   -0.4474179153
H        2.0260421245    0.0348843614    1.1006976808
H        2.5871462209   -0.3657303446   -0.5240323161
H        1.4167965058   -1.4099239058    0.2909506599
H        0.9018860209    1.4777699421   -0.5846934276
C       -0.6888680415    0.4332388381    0.4323368311
H        0.3155211828    0.0815222764   -1.4475981213
H       -1.0889020130    1.4463903050    0.5341175245
H       -0.4578116252    0.0645075276    1.4336591872
O       -1.7560959473   -0.4080258667   -0.0766239611
H       -1.5333663752   -0.6069174111   -1.0107509580
