12   
Generated by ForceBalance from qchem.out: Frame 8 of 8
C        1.8962739979   -0.1265516785    0.0502520893
C        0.5143377408    0.5113134637   -0.0728115324
H        2.0048795070   -0.6420550279    1.0063735526
H        2.6838004708    0.6251046186   -0.0173791993
H        2.0602091643   -0.8564321491   -0.7447328584
H        0.3750419248    1.2398255644    0.7326309581
C       -0.6026405172   -0.5169052200    0.0012230800
H        0.4257842394    1.0575687071   -1.0146502421
H       -0.5285205625   -1.0835839139    0.9366912612
H       -0.5370440928   -1.2240241993   -0.8263276444
O       -1.9149339868    0.0795709663   -0.1145987168
H       -1.8997691507    0.8691427491    0.4716632935
