12   
Generated by ForceBalance from qchem.out: Frame 8 of 8
C        1.8715817339   -0.1374445434   -0.1547677090
C        0.5380283049    0.5110079659    0.2089983438
H        2.1248380658   -0.9460196001    0.5347821396
H        2.6834752274    0.5908466317   -0.1242138422
H        1.8323270944   -0.5563557257   -1.1618200064
H        0.5921656080    0.9966624044    1.1850852759
C       -0.6183065274   -0.4771649043    0.1824736237
H        0.3041272857    1.2906005450   -0.5191432058
H       -0.7406147754   -0.9700763334    1.1521045573
H       -0.4353937847   -1.2553553446   -0.5672233514
O       -1.8108868331    0.2644095314   -0.1740220960
H       -2.5744875316   -0.3147980088    0.0471822365
