12   
Generated by ForceBalance from qchem.out: Frame 8 of 8
C        1.9018383967   -0.1276863562    0.0320206215
C        0.5293016756    0.5329963508   -0.0773216881
H        2.0075828011   -0.6573184086    0.9809865965
H        2.7011621166    0.6120645057   -0.0294268360
H        2.0522461815   -0.8502362747   -0.7725584090
H        0.4070874573    1.2669108104    0.7247734189
C       -0.6024291189   -0.4790429511    0.0060647010
H        0.4366486193    1.0767065460   -1.0195621556
H       -0.5300890221   -1.0640875598    0.9291479355
H       -0.5553640970   -1.1744858118   -0.8328256575
O       -1.9022293621    0.1478631019   -0.0976218929
H       -2.0581834323    0.5837839404    0.7697721191
