12   
Generated by ForceBalance from qchem.out: Frame 7 of 7
C        1.5798165192   -0.4797847994   -0.0995052068
C        0.5928431562    0.5944423972    0.3462241932
H        1.1374470788   -1.4708396956    0.0105313188
H        2.4991335519   -0.4465269955    0.4873859255
H        1.8443370483   -0.3427320161   -1.1493772924
H        0.3966788062    0.5199217925    1.4200155743
C       -0.7312652340    0.5144213446   -0.4016924322
H        1.0298723111    1.5843628527    0.1816456681
H       -0.5717850119    0.3285080602   -1.4639803106
H       -1.2867966356    1.4532859332   -0.3014919084
O       -1.5523743544   -0.5873204452    0.0545840481
H       -1.7112008220   -0.4162254424    1.0101856998
