12   
Generated by ForceBalance from qchem.out: Frame 9 of 9
C        1.4117071344   -0.6043288165    0.0191154878
C        0.7064979274    0.7488600885    0.0594971697
H        1.0921034498   -1.2396691475    0.8440974048
H        2.4915846328   -0.4632708057    0.0924655773
H        1.1933724447   -1.1346277830   -0.9066346902
H        0.9600666054    1.2530192858    0.9954301911
C       -0.8281551299    0.6569195466   -0.0750045423
H        1.0972813044    1.3820669400   -0.7400365608
H       -1.1633245514    1.1876152391   -0.9686317678
H       -1.3177331788    1.1246695961    0.7814622374
O       -1.2804035441   -0.7171888395   -0.2132823660
H       -1.8801161692   -0.8938448679    0.5424209045
