12   
Generated by ForceBalance from qchem.out: Frame 9 of 9
C        1.8315453496   -0.2246941432   -0.1514983538
C        0.5471950847    0.5689393648    0.0795609665
H        2.1071477633   -0.8036196533    0.7327054972
H        2.6665968469    0.4361046676   -0.3896229167
H        1.7041343779   -0.9213349027   -0.9816725213
H        0.6950722304    1.3095974915    0.8694315366
C       -0.6536953269   -0.3300874883    0.3929514921
H        0.2984212164    1.1199362168   -0.8296069047
H       -0.8633464212   -0.3741320485    1.4650914453
H       -0.4492444697   -1.3485428611    0.0582193689
O       -1.8383431595    0.0607827789   -0.3470051528
H       -2.3130456618    0.7124962423    0.2146678658
