12   
Generated by ForceBalance from qchem.out: Frame 7 of 7
C        1.5944886846   -0.4550457537   -0.1797039356
C        0.6019482476    0.5641424550    0.3744490034
H        1.1860292106   -1.4658528347   -0.1290902519
H        2.5331997622   -0.4399893482    0.3762761423
H        1.8166799896   -0.2388850125   -1.2258483308
H        0.4369477440    0.4090198096    1.4454999590
C       -0.7426345260    0.5257639034   -0.3361376264
H        1.0210332332    1.5696887418    0.2755792900
H       -0.6091089283    0.4709031633   -1.4185323334
H       -1.3127901633    1.4318994370   -0.1086772141
O       -1.5487455596   -0.6181531605    0.0467104760
H       -1.1412770626   -0.9822736343    0.8623942536
