12   
Generated by ForceBalance from qchem.out: Frame 8 of 8
C        1.8531305408   -0.1609975490   -0.1794097365
C        0.5362847643    0.5040550430    0.2144735974
H        2.1090050289   -0.9758544998    0.5017348100
H        2.6754979964    0.5559138250   -0.1622304427
H        1.7878990361   -0.5750081523   -1.1871663196
H        0.6190465560    0.9844275645    1.1911824364
C       -0.6323699920   -0.4700801807    0.2088204260
H        0.2969342264    1.2891719960   -0.5056513178
H       -0.7430892864   -0.9682955259    1.1777074342
H       -0.4701896759   -1.2448623619   -0.5490416299
O       -1.8221109369    0.2874729683   -0.1202151311
H       -2.5665893415   -0.3558751881   -0.1196053029
