12   
Generated by ForceBalance from qchem.out: Frame 12 of 12
C        1.8105099596   -0.2440188898   -0.1966421415
C        0.5549099054    0.5562005106    0.1423454955
H        2.0944671339   -0.9064708642    0.6240957399
H        2.6558082576    0.4161860768   -0.3979566778
H        1.6451272798   -0.8595928545   -1.0826881018
H        0.7461657828    1.2236540439    0.9848831726
C       -0.6525382313   -0.3338432866    0.4308625463
H        0.2852086828    1.1878776631   -0.7059075323
H       -0.8644651984   -0.3963160178    1.5032201614
H       -0.4636724235   -1.3504275131    0.0700711914
O       -1.7894368525    0.2252382593   -0.2747620363
H       -2.4800804426   -0.4750700107   -0.2818433101
