12   
Generated by ForceBalance from qchem.out: Frame 8 of 8
C        1.4134366935   -0.5790271423    0.0284563903
C        0.6688677238    0.7529225892   -0.0470224096
H        1.2741905043   -1.0735503423    0.9933156415
H        2.4849095531   -0.4170812541   -0.0954232117
H        1.0812658827   -1.2561381136   -0.7581373586
H        1.0425132828    1.4293810183    0.7246665877
C       -0.8659617697    0.6374334753    0.0844916063
H        0.9126188207    1.2160703990   -1.0058324524
H       -1.3714790387    1.2321103940   -0.6750961448
H       -1.1795025123    1.0156876128    1.0634049591
O       -1.3953946119   -0.6984268661   -0.0821042065
H       -0.8136307492   -1.2896741888    0.4431355905
