12   
Generated by ForceBalance from qchem.out: Frame 8 of 8
C        1.6490913681   -0.4365073189   -0.1434538992
C        0.5948440010    0.5348101532    0.3792272784
H        1.2741797992   -1.4610273713   -0.1117465468
H        2.5636969282   -0.3911698340    0.4502396999
H        1.9072395922   -0.2023160226   -1.1777651421
H        0.3923372949    0.3559209990    1.4372775897
C       -0.7248371166    0.4341399029   -0.3856926611
H        0.9813336923    1.5556085296    0.3001858472
H       -0.5561024205    0.0897920482   -1.4070249293
H       -1.2223372894    1.4064201718   -0.4421058959
O       -1.6190665904   -0.5381280817    0.2158502959
H       -2.1524510982   -0.0406866991    0.8732923202
