12   
Generated by ForceBalance from qchem.out: Frame 12 of 12
C       -1.7365576491    0.1832462122    0.3326148350
C       -0.5656668148    0.0018411659   -0.6314479045
H       -2.0571288512   -0.7804521047    0.7314532378
H       -2.5925608586    0.6431512426   -0.1640674867
H       -1.4594891669    0.8170702876    1.1780037793
H       -0.8843422786   -0.6478306575   -1.4507181387
C        0.6788671944   -0.5946899174    0.0367387130
H       -0.2897447899    0.9516616286   -1.0968268586
H        1.1421307629   -1.3537650403   -0.5942899317
H        0.4079156320   -1.0681978125    0.9864521727
O        1.7278163956    0.3794235127    0.2680187056
H        1.2751222915    1.2406371421    0.4045729906
