12   
Generated by ForceBalance from qchem.out: Frame 8 of 8
C        1.8140923443   -0.2338530085   -0.2151856556
C        0.5793658608    0.5837654056    0.1572629919
H        2.1047929802   -0.9028558119    0.5974650214
H        2.6654132939    0.4126427086   -0.4349976598
H        1.6167814794   -0.8445219277   -1.0979453361
H        0.8049595977    1.2245860095    1.0130312542
C       -0.6487114138   -0.2887688095    0.4485510918
H        0.3112001824    1.2437304449   -0.6692515221
H       -0.9825429774   -0.1741107542    1.4821738255
H       -0.4110530260   -1.3451350527    0.2983002328
O       -1.7301015501    0.0366083635   -0.4680842005
H       -2.4862317944    0.3362400399    0.0800796100
