12   
Generated by ForceBalance from qchem.out: Frame 7 of 7
C        1.8657243487   -0.1194818222    0.1692668419
C        0.5201924912    0.4848027816   -0.2273038391
H        1.8371719661   -0.4704100895    1.2018887736
H        2.6680227390    0.6145142197    0.0816711207
H        2.1204282674   -0.9695015564   -0.4669864955
H        0.3088517780    1.3127569741    0.4578623579
C       -0.6226141372   -0.5240384475   -0.1250444310
H        0.5621870950    0.9142297789   -1.2306131022
H       -0.3935245086   -1.2508482085    0.6613434164
H       -0.7511809013   -1.0732803392   -1.0596213147
O       -1.9035079267    0.0765384162    0.1893030057
H       -1.7131275050    0.9849416219    0.5072631677
