12   
Generated by ForceBalance from qchem.out: Frame 8 of 8
C        1.8824030404   -0.1150998187    0.1163126052
C        0.5171002585    0.5167369647   -0.1476962506
H        1.8897358525   -0.6128749540    1.0870237738
H        2.6719623823    0.6377170833    0.1149060303
H        2.1289129862   -0.8584477675   -0.6447054490
H        0.3016527023    1.2251009642    0.6572784812
C       -0.6095845239   -0.5126794939   -0.1691984524
H        0.5270850532    1.0845633442   -1.0816706463
H       -0.3958930398   -1.3241760796    0.5284017708
H       -0.7168913922   -0.9481342481   -1.1682199832
O       -1.8797508959    0.0296739466    0.2692979690
H       -1.8680816942    0.9812073916    0.0240470980
