12   
Generated by ForceBalance from qchem.out: Frame 8 of 8
C        1.5542378860   -0.5046407954   -0.0784124468
C        0.6312057115    0.6390808587    0.3280814640
H        1.0885055835   -1.4629963533    0.1496145943
H        2.5075735990   -0.4482194038    0.4494441556
H        1.7599429459   -0.4736127022   -1.1503348116
H        0.4714787517    0.6270411733    1.4089641767
C       -0.7192195188    0.5539280774   -0.3609820096
H        1.0895067337    1.6020411536    0.0813253053
H       -0.5957437949    0.5677876361   -1.4475450898
H       -1.3484332788    1.4037964394   -0.0848502385
O       -1.3687603140   -0.6978359317   -0.0081395053
H       -2.2124805458   -0.4619275417    0.4330413351
