12   
Generated by ForceBalance from qchem.out: Frame 7 of 7
C        1.4734746015   -0.5652169501   -0.1084669636
C        0.6692132169    0.6931273372    0.2007979851
H        1.0606118851   -1.4196658998    0.4234578649
H        2.5157535099   -0.4370143168    0.1884635139
H        1.4530148342   -0.7919031189   -1.1766377543
H        0.7037929721    0.8823874596    1.2767339603
C       -0.7842569174    0.5889467961   -0.2327784179
H        1.1095227443    1.5676394652   -0.2863341353
H       -0.8499141666    0.6776364276   -1.3228092847
H       -1.3826759877    1.3929947237    0.2082525904
O       -1.2894257185   -0.7048051752    0.1769508915
H       -2.1273744276   -0.8400089146   -0.3190650486
