12   
Generated by ForceBalance from qchem.out: Frame 8 of 8
C        1.7218024658   -0.3726148750    0.1446103053
C        0.5813417694    0.4743714387   -0.4146329433
H        1.9987176937   -0.0386909598    1.1464237419
H        2.6099485267   -0.3093641592   -0.4865469620
H        1.4269870127   -1.4215827332    0.2087960169
H        0.9053620461    1.5173059038   -0.4678040025
C       -0.7023468445    0.3705201020    0.4162500237
H        0.3381574654    0.1656771612   -1.4322952142
H       -1.1253450581    1.3596865073    0.6056293069
H       -0.5016179887   -0.0907819298    1.3865907973
O       -1.6813328166   -0.4594495512   -0.2689887379
H       -2.4687340621    0.1043264330   -0.4227364818
