12   
Generated by ForceBalance from qchem.out: Frame 8 of 8
C        1.5483688989   -0.5043292464   -0.0760656109
C        0.6216671152    0.6380015096    0.3265207639
H        1.0763263615   -1.4654461245    0.1264768589
H        2.4923944804   -0.4591631932    0.4690989875
H        1.7719407498   -0.4596810951   -1.1435530143
H        0.4677598120    0.6336996268    1.4105682803
C       -0.7325693861    0.5572516101   -0.3612915146
H        1.0789351321    1.6023498143    0.0846720050
H       -0.6155970035    0.5393191654   -1.4453948287
H       -1.3502628229    1.4233691223   -0.1001626140
O       -1.4354190288   -0.6687338503   -0.0489922537
H       -1.5516917977   -0.6638579494    0.9284552329
