12   
Generated by ForceBalance from qchem.out: Frame 7 of 7
C        1.4666580986   -0.5535855736    0.1004955531
C        0.6635831636    0.6998320984   -0.2332664141
H        1.4532498992   -0.7547447661    1.1737435985
H        2.5068845554   -0.4366959908   -0.2079363678
H        1.0468163542   -1.4189058393   -0.4083411668
H        1.1069450044    1.5833387617    0.2344473662
C       -0.7881244753    0.6017552751    0.2046227733
H        0.6923607169    0.8639057450   -1.3133731228
H       -1.3823072121    1.3966110492   -0.2568140510
H       -0.8646756207    0.7104483141    1.2927088410
O       -1.2855255527   -0.7024851522   -0.1825355125
H       -2.2652791934   -0.6521680542   -0.1152028938
