12   
Generated by ForceBalance from qchem.out: Frame 12 of 12
C        1.5310577080   -0.5173821866   -0.1574253659
C        0.6363118805    0.6362472944    0.2826870830
H        1.0723068552   -1.4711290153    0.1063939016
H        2.5102425887   -0.4670426377    0.3214103861
H        1.6845214071   -0.4984001080   -1.2385072811
H        0.5310419334    0.6497605287    1.3694146693
C       -0.7551207880    0.5520085436   -0.3171730826
H        1.0880736581    1.5894798168   -0.0084558861
H       -0.6992014756    0.3381855902   -1.3881679619
H       -1.2929977585    1.4962628000   -0.1895363653
O       -1.4892237119   -0.4902711876    0.3807172488
H       -1.9472320062   -1.0244602249   -0.3036901645
