12   
Generated by ForceBalance from qchem.out: Frame 8 of 8
C        1.8403734383   -0.1456236925    0.2326841571
C        0.5524300903    0.5316266358   -0.2325027983
H        1.7179816042   -0.5608694001    1.2349877817
H        2.6715969252    0.5608735910    0.2613887401
H        2.1224783443   -0.9628441868   -0.4347412220
H        0.2842505375    1.3263530063    0.4661924424
C       -0.6384808141   -0.4328741175   -0.3001122842
H        0.7062565793    1.0093138285   -1.2020695821
H       -0.3994860291   -1.3709915330    0.2080628826
H       -0.8907663901   -0.6781537666   -1.3331314680
O       -1.8313838432    0.1545474596    0.2858666997
H       -1.9525492167   -0.2781590990    1.1578821568
