12   
Generated by ForceBalance from qchem.out: Frame 8 of 8
C        1.8372070825   -0.1091307804    0.2418731716
C        0.5443258793    0.4979660988   -0.2998555422
H        1.7190512081   -0.4027006263    1.2868050176
H        2.6637554773    0.6009311675    0.1837984777
H        2.1231679441   -0.9988280470   -0.3230522725
H        0.2793106628    1.3762667645    0.2935332229
C       -0.6418991095   -0.4754941106   -0.2446438974
H        0.6920605408    0.8547193164   -1.3210137558
H       -0.3910904935   -1.3493752785    0.3657146669
H       -0.9092065035   -0.8356086100   -1.2377817620
O       -1.8494367525    0.1428631358    0.2625720580
H       -1.7147014057    0.2293857975    1.2325021976
