12   
Generated by ForceBalance from qchem.out: Frame 8 of 8
C        1.5349611566   -0.5133618818    0.1443214136
C        0.6333085544    0.6414651352   -0.2803201414
H        1.6701381373   -0.5223225907    1.2281035287
H        2.5215538794   -0.4399005867   -0.3158090699
H        1.0976413764   -1.4679002842   -0.1531844022
H        1.0861233504    1.5914926974    0.0201394099
C       -0.7577688127    0.5505345393    0.3248109878
H        0.5241567255    0.6660927436   -1.3662000088
H       -1.3006502498    1.4860614873    0.1744986959
H       -0.7069136848    0.3622974235    1.4007714477
O       -1.5369624311   -0.4759664575   -0.3459553012
H       -1.5781040713   -1.2433717670    0.2644037476
