12   
Generated by ForceBalance from qchem.out: Frame 12 of 12
C        1.4446887276   -0.5526342959    0.0554007436
C        0.6659168614    0.7585434966   -0.0442645861
H        1.2326621400   -1.0858954012    0.9850536105
H        2.5165151676   -0.3516711693    0.0342040177
H        1.2256092381   -1.2133561270   -0.7852081430
H        0.9990682342    1.4375517749    0.7430225589
C       -0.8706761134    0.6210020107    0.0420731744
H        0.9332194889    1.2324133316   -0.9915454612
H       -1.3529360486    1.2405972752   -0.7152232886
H       -1.2091964460    0.9735268396    1.0208886237
O       -1.3997754233   -0.7157562069   -0.1333142407
H       -0.6518761092   -1.3408569643   -0.0399240000
