12   
Generated by ForceBalance from qchem.out: Frame 7 of 7
C        1.8521282187   -0.1465454653    0.2114949375
C        0.5463959932    0.5106617164   -0.2324055130
H        1.7502835425   -0.5482355251    1.2207144458
H        2.6753789766    0.5695649949    0.2122693161
H        2.1266324726   -0.9694836389   -0.4516913038
H        0.3035300447    1.3075278336    0.4753381568
C       -0.6332287564   -0.4680174433   -0.2468112919
H        0.6680798458    0.9793057948   -1.2119743888
H       -0.4119072457   -1.3451486511    0.3622129765
H       -0.8438767053   -0.8136710442   -1.2644018167
O       -1.8332168018    0.0805797019    0.3501808551
H       -1.9202328221    0.9907528504   -0.0120170337
