12   
Generated by ForceBalance from qchem.out: Frame 8 of 8
C        1.7649460486   -0.3594780808    0.0984126993
C        0.5694473443    0.5910193709    0.1198589572
H        1.5143683936   -1.3081544930    0.5776036717
H        2.6200723012    0.0662595824    0.6262865304
H        2.0783134683   -0.5737127120   -0.9254552435
H        0.2776251730    0.8081163018    1.1484461787
C       -0.6657074434    0.0218392704   -0.5898403963
H        0.8553372958    1.5427297596   -0.3336703420
H       -0.4463898222   -0.9589164610   -1.0192780110
H       -0.9853749034    0.6717834043   -1.4075963964
O       -1.7818821854   -0.0757793883    0.3382899729
H       -2.0368114694   -1.0221787274    0.3764710045
