12   
Generated by ForceBalance from qchem.out: Frame 7 of 7
C        1.8656568649   -0.1199269739   -0.1689848335
C        0.5203438983    0.4847402616    0.2277578345
H        2.1176798190   -0.9732094181    0.4639693593
H        2.6690442084    0.6122833491   -0.0765523389
H        1.8384935476   -0.4662300924   -1.2031997343
H        0.5623951804    0.9137975357    1.2312219991
C       -0.6226267967   -0.5238345321    0.1249113753
H        0.3092763484    1.3130066137   -0.4571124858
H       -0.7512934513   -1.0735639790    1.0591853920
H       -0.3935366593   -1.2502574675   -0.6618431937
O       -1.9034233252    0.0770065576   -0.1893192246
H       -1.7129075024    0.9855256462   -0.5068662004
