12   
Generated by ForceBalance from qchem.out: Frame 13 of 13
C        1.5389663900   -0.4969055974   -0.1024115935
C        0.6081168803    0.6267631481    0.3523336034
H        1.1779187556   -1.4827161530    0.1969284250
H        2.5316142681   -0.3757679121    0.3336273630
H        1.6437892168   -0.4982596537   -1.1891855044
H        0.4891301042    0.5941171494    1.4391207518
C       -0.7672810289    0.5782867137   -0.2963168714
H        1.0615460381    1.5929604240    0.1150419670
H       -0.6647388130    0.6849697532   -1.3815100930
H       -1.3901571423    1.3979197968    0.0674266571
O       -1.4954004822   -0.6440117812   -0.0258712369
H       -0.8452300110   -1.2885923669    0.3252434399
