12   
Generated by ForceBalance from qchem.out: Frame 8 of 8
C        1.4947697968   -0.5288495433    0.1472670552
C        0.6414223881    0.6677568215   -0.2607649297
H        1.5410956002   -0.6188910167    1.2346180073
H        2.5151636139   -0.4273651664   -0.2259245129
H        1.0705871520   -1.4499342999   -0.2504946983
H        1.0801060455    1.5947904780    0.1203126007
C       -0.7808495303    0.5642686457    0.2523553824
H        0.6075352740    0.7510137444   -1.3492819253
H       -1.3611441094    1.4404388863   -0.0543475301
H       -0.7934344032    0.5134835934    1.3471525618
O       -1.3561060184   -0.6419401459   -0.3078128803
H       -2.3276689493   -0.5721310898   -0.1738072585
