12   
Generated by ForceBalance from qchem.out: Frame 7 of 7
C        1.5834362946   -0.4632157383   -0.1230417275
C        0.6152022389    0.6208844828    0.3462512768
H        1.2091037891   -1.4633382177    0.1064645867
H        2.5541783720   -0.3628645707    0.3647558074
H        1.7405911192   -0.4019347154   -1.2018496161
H        0.4782764484    0.5746810861    1.4286791703
C       -0.7541798760    0.5267619433   -0.3117053729
H        1.0424162935    1.6020242142    0.1184367483
H       -0.6525094364    0.4319466719   -1.3987358377
H       -1.3428254157    1.4204368998   -0.1040485192
O       -1.5535436439   -0.5559927660    0.2191800136
H       -1.0432903178   -1.3783898590    0.0447443403
