12   
Generated by ForceBalance from qchem.out: Frame 8 of 8
C        1.7645394312   -0.3236410919   -0.1777323219
C        0.5689153770    0.6042702121    0.0267413765
H        2.0762324513   -0.7772481489    0.7654185041
H        2.6201767873    0.2167543322   -0.5864101640
H        1.5140539206   -1.1289495879   -0.8711862687
H        0.8525294198    1.4203183761    0.6951704395
C       -0.6652045433   -0.1201609330    0.5746622315
H        0.2786406376    1.0594969964   -0.9212773052
H       -0.9819411894    0.2981417247    1.5340848004
H       -0.4459755716   -1.1791524675    0.7349250356
O       -1.7617389290    0.0230438024   -0.3700524101
H       -2.1761823341   -0.8621341055   -0.4587277025
