12   
Generated by ForceBalance from qchem.out: Frame 8 of 8
C        1.8984948910   -0.1387925987   -0.0019310778
C        0.5251763531    0.5277394292   -0.0222384292
H        2.0270451881   -0.7469650758    0.8958859466
H        2.6953707793    0.6061289998   -0.0171556507
H        2.0324031117   -0.7890817778   -0.8689547212
H        0.4095871801    1.1901052299    0.8382661697
C       -0.6011550062   -0.4852092607   -0.0008903641
H        0.4131902291    1.1444365728   -0.9161547298
H       -0.5438793108   -1.1091980808    0.8981032619
H       -0.5309473336   -1.1442666158   -0.8728963428
O       -1.8458967007    0.2536008431   -0.0225793310
H       -2.5483936126   -0.3945131032   -0.2531274986
