12   
Generated by ForceBalance from qchem.out: Frame 8 of 8
C        1.8930592786   -0.1307901828   -0.0301865243
C        0.5113574974    0.5185816423   -0.0001290308
H        2.0625823302   -0.7346342094    0.8637223543
H        2.6804906676    0.6226863317   -0.0783093500
H        2.0012208543   -0.7829725466   -0.8994429492
H        0.4195033355    1.1858982134    0.8592403812
C       -0.6026942899   -0.5100597197    0.0721014577
H        0.3607091266    1.1297524808   -0.8928932208
H       -0.5163128837   -1.1058039672    0.9850125772
H       -0.5417440223   -1.1961826497   -0.7771174293
O       -1.8888846130    0.1629634337    0.0979608588
H       -2.3857022729   -0.1470906480   -0.6887011866
