12   
Generated by ForceBalance from qchem.out: Frame 8 of 8
C        1.4370669736   -0.5729162169   -0.1269919809
C        0.6773513467    0.7157803471    0.1680740504
H        1.0436035322   -1.3897931662    0.4740729308
H        2.4987441917   -0.4527713971    0.0950092684
H        1.3434471731   -0.8531111003   -1.1786054795
H        0.7843053524    0.9553951968    1.2292396324
C       -0.8038287005    0.6214707843   -0.1668400420
H        1.1014022764    1.5572217030   -0.3870695131
H       -0.9337842414    0.6621475867   -1.2531697041
H       -1.3599637186    1.4570877609    0.2698330938
O       -1.3192243301   -0.6371810568    0.3347013733
H       -2.0520711187   -0.8951899105   -0.2658682932
