12   
Generated by ForceBalance from qchem.out: Frame 12 of 12
C        1.5371082993   -0.4987676188   -0.1088580742
C        0.6115588597    0.6238150622    0.3553795619
H        1.1107132929   -1.4810231779    0.0976285239
H        2.5048030060   -0.4414161504    0.3916466250
H        1.7071006491   -0.4348921567   -1.1851307185
H        0.4735897516    0.5740662308    1.4403652605
C       -0.7540398750    0.5829959772   -0.3114231827
H        1.0701980969    1.5944871593    0.1473543079
H       -0.6519758780    0.6611621370   -1.3962820344
H       -1.3661006804    1.4215733335    0.0347222905
O       -1.4737815246   -0.6490063309   -0.0557594793
H       -1.0161482057   -1.0880996898    0.6937306811
