12   
Generated by ForceBalance from qchem.out: Frame 7 of 7
C        1.8778178661   -0.1308191529    0.1435009516
C        0.5257161876    0.5120141833   -0.1592883570
H        1.8682378890   -0.5863067150    1.1347397241
H        2.6801837583    0.6078564568    0.1170871647
H        2.1179356565   -0.9104080834   -0.5824907725
H        0.3144545228    1.2541144818    0.6158614756
C       -0.6176722647   -0.4990473169   -0.1513843306
H        0.5533889385    1.0430267822   -1.1142834278
H       -0.4237964643   -1.2853591091    0.5800320692
H       -0.7228304479   -0.9722881101   -1.1333197437
O       -1.8826393706    0.0809995749    0.2522642969
H       -1.8526833524    1.0216448718   -0.0304751842
