12   
Generated by ForceBalance from qchem.out: Frame 7 of 7
C        1.8841702296   -0.1403888894   -0.1267345291
C        0.5303718159    0.5072417663    0.1575080650
H        2.1078883735   -0.9236312866    0.6007354062
H        2.6900233609    0.5936352398   -0.0832526485
H        1.8954552996   -0.5942525783   -1.1194694161
H        0.5325897785    1.0190373866    1.1216305334
C       -0.6099906016   -0.5025221726    0.1245566237
H        0.3319710328    1.2701270669   -0.6009662560
H       -0.6346642969   -1.0953936344    1.0393258161
H       -0.4797456032   -1.1930736214   -0.7157317168
O       -1.9057811662    0.1367360874    0.0453891249
H       -1.9891396960    0.4520732166   -0.8818802651
