12   
Generated by ForceBalance from qchem.out: Frame 7 of 7
C        1.8833203337   -0.1182353027   -0.0905742271
C        0.5120449647    0.5146737771    0.1346847608
H        2.0996843694   -0.8683205664    0.6726886634
H        2.6734144704    0.6329008124   -0.0541900304
H        1.9262436711   -0.6081602692   -1.0646077889
H        0.4870254587    1.0640210818    1.0789348242
C       -0.6093769966   -0.5136970464    0.1079145317
H        0.3274059038    1.2420935350   -0.6629002956
H       -0.6204701335   -1.1050334977    1.0257426815
H       -0.4555467666   -1.1984418649   -0.7326990992
O       -1.9239427174    0.0806713160   -0.0276431549
H       -1.7787549474    1.0078989179   -0.3151014781
