12   
Generated by ForceBalance from qchem.out: Frame 12 of 12
C        1.8137022231   -0.1165334204   -0.2743674634
C        0.5490267824    0.4935079486    0.3273961368
H        2.1308434837   -0.9934656902    0.2929841518
H        2.6385745064    0.5979179501   -0.2742885861
H        1.6342616744   -0.4293697183   -1.3042342383
H        0.7525418934    0.8372196074    1.3441923723
C       -0.6417656176   -0.4786022059    0.3251743207
H        0.2785607530    1.3812523002   -0.2511975450
H       -0.9610580491   -0.6960261431    1.3494815185
H       -0.3703099700   -1.4249904323   -0.1447501318
O       -1.7833722845   -0.0016670586   -0.4301540861
H       -1.7606075829    0.9780378037   -0.3707889835
