12   
Generated by ForceBalance from qchem.out: Frame 7 of 7
C        1.4818949543   -0.5527131995   -0.0931379749
C        0.6694625187    0.6950781264    0.2379023125
H        1.0500340813   -1.4237747727    0.3957586729
H        2.5150408768   -0.4401868037    0.2395186931
H        1.4920756843   -0.7407703168   -1.1688017159
H        0.6807706381    0.8505291706    1.3199363160
C       -0.7752589337    0.5896191228   -0.2255298201
H        1.1167568123    1.5840516523   -0.2161489777
H       -0.8321396485    0.6903102196   -1.3142789918
H       -1.3794906639    1.3862880277    0.2157224125
O       -1.2990517776   -0.7167407839    0.1325329803
H       -2.1908744428   -0.5673607601    0.5142169291
