12   
Generated by ForceBalance from qchem.out: Frame 8 of 8
C        1.6468426058   -0.4373221157    0.1506570243
C        0.5937761757    0.5314737992   -0.3792247949
H        1.9027378685   -0.1968850935    1.1839961680
H        2.5626775620   -0.3959162635   -0.4413929185
H        1.2709050661   -1.4615997340    0.1246034959
H        0.9805216837    1.5526253258   -0.3075802125
C       -0.7273742535    0.4389471761    0.3849153872
H        0.3961992398    0.3468561630   -1.4378471240
H       -1.2206353711    1.4148425220    0.4334578530
H       -0.5649787976    0.0976301521    1.4075545684
O       -1.6305047099   -0.5318250883   -0.2001850786
H       -1.9823542637   -0.1061041128   -1.0132754525
