12   
Generated by ForceBalance from qchem.out: Frame 8 of 8
C        1.8754400731   -0.1483107104   -0.1511718052
C        0.5354501205    0.5135946734    0.1614241073
H        2.1180899495   -0.9239456392    0.5788650166
H        2.6860212105    0.5820272397   -0.1404211056
H        1.8533494858   -0.6129435639   -1.1385168115
H        0.5767581608    1.0472751920    1.1127845661
C       -0.6164883556   -0.4801411504    0.1695769857
H        0.3086563310    1.2545639695   -0.6078650027
H       -0.7523782295   -0.9272670435    1.1599302256
H       -0.4161115411   -1.2915562658   -0.5392226885
O       -1.8060998659    0.2372859993   -0.2400635052
H       -2.5396632813   -0.4183836430   -0.2293929662
