12   
Generated by ForceBalance from qchem.out: Frame 12 of 12
C        1.7189662314   -0.3825239279    0.1314366258
C        0.5771245050    0.4783799295   -0.4033214778
H        1.9985534684   -0.0708641487    1.1394732373
H        2.6053252787   -0.3075012088   -0.5008661403
H        1.4204902606   -1.4315242335    0.1735859439
H        0.9023164030    1.5217734560   -0.4395221350
C       -0.7015685329    0.3589203468    0.4380319159
H        0.3368636581    0.1878667560   -1.4282289111
H       -1.1101388891    1.3451425744    0.6784271518
H       -0.5026629588   -0.1532783899    1.3796809845
O       -1.7188361533   -0.4450172548   -0.2095412160
H       -2.0896738900    0.1223335298   -0.9215177595
