12   
Generated by ForceBalance from qchem.out: Frame 7 of 7
C        1.8873031327   -0.1200815522    0.0471538078
C        0.5025302947    0.5167407105   -0.0492392856
H        1.9721579579   -0.7214188963    0.9539132388
H        2.6694812387    0.6398518628    0.0725780453
H        2.0827477221   -0.7719912721   -0.8069282485
H        0.3209538901    1.1461194027    0.8248849299
C       -0.6070930141   -0.5227978393   -0.1070711158
H        0.4443470128    1.1653545498   -0.9284393265
H       -0.4745604519   -1.2619655284    0.6837614797
H       -0.5966067022   -1.0517081807   -1.0665025103
O       -1.9115278528    0.0470262930    0.1492197025
H       -2.0484252995    0.7242611383   -0.5514984600
