12   
Generated by ForceBalance from qchem.out: Frame 8 of 8
C        1.8907032897   -0.1293339718   -0.0126805212
C        0.5159567359    0.5341711928    0.0332787339
H        2.0332321944   -0.7931959725    0.8424008221
H        2.6880778430    0.6148745300    0.0057147052
H        2.0091253819   -0.7242190309   -0.9207343707
H        0.4057644038    1.1304371148    0.9411233951
C       -0.6128224628   -0.4831880255   -0.0087288623
H        0.4043740138    1.2202031644   -0.8108161096
H       -0.5732428626   -1.1290740379    0.8701377505
H       -0.5277565314   -1.1218715959   -0.8932937363
O       -1.9105874248    0.1595440803    0.0354940607
H       -2.1629380396    0.3285239108   -0.8985306778
