12   
Generated by ForceBalance from qchem.out: Frame 12 of 12
C        1.4959775481   -0.5246466217    0.0679709582
C        0.6308201100    0.6900590644   -0.2661516655
H        1.4570042722   -0.7643987361    1.1332676742
H        2.5379391371   -0.3331874778   -0.1919031345
H        1.1897840379   -1.4079213422   -0.4954127359
H        1.0740933741    1.5923863927    0.1624632428
C       -0.8069466202    0.5874609285    0.2400702010
H        0.6245978139    0.8264190022   -1.3507974748
H       -1.4426194684    1.3319060926   -0.2403445301
H       -0.8183690143    0.7801876708    1.3192787358
O       -1.4391628122   -0.6900295236   -0.0010999125
H       -0.7250865687   -1.3618780066    0.0081331518
