12   
Generated by ForceBalance from qchem.out: Frame 7 of 7
C        1.8478943079   -0.1376898868   -0.2225802882
C        0.5435210992    0.4934813189    0.2614512718
H        2.1229672004   -0.9968300169    0.3925733630
H        2.6714140407    0.5770625468   -0.1842640828
H        1.7434529923   -0.4817325934   -1.2525703089
H        0.6674855585    0.9084659152    1.2643676173
C       -0.6351398720   -0.4861569926    0.2270947401
H        0.3049400864    1.3301695604   -0.4013046782
H       -0.8461163882   -0.8738188019    1.2289999857
H       -0.4070243816   -1.3370278066   -0.4167966486
O       -1.8432860295    0.0853384995   -0.3338826799
H       -1.8130190313    1.0450388799   -0.1269247272
