12   
Generated by ForceBalance from qchem.out: Frame 9 of 9
C        1.4814293793   -0.5237404454   -0.0791580008
C        0.6529785420    0.7276344385    0.2014873027
H        1.1559466522   -1.3531551788    0.5490278982
H        2.5361745340   -0.3450748778    0.1337055092
H        1.4045335510   -0.8297324775   -1.1260213104
H        0.7117985484    0.9510743086    1.2694822912
C       -0.8146333371    0.5806883934   -0.1957226203
H        1.0700754014    1.5887626913   -0.3275397164
H       -0.9152666056    0.6850233060   -1.2824175458
H       -1.4270999266    1.3505958674    0.2725939549
O       -1.4002753790   -0.6738572407    0.2191009276
H       -0.8694600281   -1.3733219793   -0.2216395387
