12   
Generated by ForceBalance from qchem.out: Frame 7 of 7
C        1.8124596103   -0.1859921172   -0.2612419767
C        0.5690261951    0.5297311185    0.2628166754
H        2.1034589285   -1.0025422950    0.4024745437
H        2.6598604560    0.4968483209   -0.3421407401
H        1.6209796061   -0.6078526986   -1.2492292436
H        0.7858677275    0.9864109463    1.2316799779
C       -0.6519418357   -0.3977574396    0.3678893429
H        0.3118388851    1.3428996530   -0.4199232132
H       -0.9726807468   -0.5131278354    1.4082686071
H       -0.4193217832   -1.3907637455   -0.0171937407
O       -1.7665493846    0.0405989045   -0.4459930494
H       -1.9997089772    0.9368068094   -0.1143242522
