12   
Generated by ForceBalance from qchem.out: Frame 7 of 7
C        1.4744563321   -0.5526933579   -0.0959061913
C        0.6662082369    0.6978770666    0.2359549131
H        1.0488001972   -1.4208273364    0.4034114480
H        2.5110727071   -0.4374987367    0.2249444943
H        1.4732087689   -0.7477383728   -1.1703626554
H        0.6842548783    0.8568071650    1.3171373105
C       -0.7813569133    0.5957903685   -0.2160444715
H        1.1122440486    1.5842021764   -0.2241179341
H       -0.8497182588    0.7039075623   -1.3042805580
H       -1.3803212915    1.3896840390    0.2389736271
O       -1.2878453682   -0.7109114524    0.1580493382
H       -2.2507722120   -0.5996831686    0.3180493093
