12   
Generated by ForceBalance from qchem.out: Frame 8 of 8
C        1.8959848868   -0.1239655311    0.1000581121
C        0.5323354705    0.5244560463   -0.1295327933
H        1.9109291440   -0.6534599621    1.0541609500
H        2.6900622789    0.6240192848    0.1166269983
H        2.1339092744   -0.8439438028   -0.6862168435
H        0.3167645275    1.2127471764    0.6903184144
C       -0.6005068066   -0.4978288552   -0.1564392890
H        0.5357895206    1.1163154258   -1.0484937513
H       -0.3803737613   -1.3050859118    0.5445402464
H       -0.7209842174   -0.9456074197   -1.1469579906
O       -1.8497986246    0.0648398566    0.3171472097
H       -2.3042251514    0.4343850515   -0.4718460735
