12   
Generated by ForceBalance from qchem.out: Frame 7 of 7
C        1.4726208470   -0.5542124715    0.1138062702
C        0.6552852438    0.6904406005   -0.2181617656
H        1.4735537806   -0.7479332706    1.1884887701
H        2.5081141559   -0.4309344983   -0.2078103653
H        1.0539918066   -1.4265977978   -0.3838932923
H        1.1023083202    1.5808232624    0.2328884096
C       -0.7865241031    0.5880474501    0.2502097554
H        0.6625953555    0.8445875210   -1.3000147114
H       -1.3953283167    1.3734665362   -0.2083085382
H       -0.8416661675    0.7090018035    1.3382710665
O       -1.2831418209   -0.7237607543   -0.1118445376
H       -2.2616503841   -0.6789289024   -0.0251611496
