12   
Generated by ForceBalance from qchem.out: Frame 8 of 8
C        1.4058525929   -0.6010863571   -0.0419996138
C        0.6950430115    0.7461333617    0.0520684188
H        1.0994230091   -1.2576352736    0.7696145894
H        2.4863383412   -0.4564051122    0.0133290460
H        1.1779270829   -1.1076931247   -0.9802823165
H        0.9721330103    1.2152223662    0.9991767490
C       -0.8386151827    0.6494144546   -0.0331442888
H        1.0538237670    1.4154625724   -0.7334942404
H       -1.1766260333    0.9958542887   -1.0128237890
H       -1.3125017647    1.2851493281    0.7192586623
O       -1.2827645510   -0.7188478387    0.1668598157
H       -1.9562272852   -0.8957641393   -0.5239933645
