12   
Generated by ForceBalance from qchem.out: Frame 7 of 7
C        1.4449771752   -0.5844071098    0.0829219042
C        0.6869125059    0.7225317317   -0.1304495143
H        1.3255676787   -0.9513133344    1.1037933866
H        2.5103612200   -0.4353240028   -0.1014125728
H        1.0774200272   -1.3542338093   -0.5916776687
H        1.1032423708    1.5188364645    0.4916911607
C       -0.8093949909    0.6136008024    0.1601656613
H        0.8280018591    1.0363936299   -1.1678674341
H       -1.3783863001    1.3357995164   -0.4339114181
H       -0.9942719976    0.8316166780    1.2173759972
O       -1.2480658535   -0.7374278283   -0.1238680118
H       -2.1306176688   -0.8282125250    0.2996363439
