12   
Generated by ForceBalance from qchem.out: Frame 12 of 12
C        1.5609048408   -0.4654813613   -0.2072548045
C        0.6076453587    0.5978827470    0.3328292686
H        1.1455426247   -1.4659966633   -0.0746072408
H        2.5268237626   -0.4290284796    0.2988914252
H        1.7315887971   -0.3157708418   -1.2744696876
H        0.5022618198    0.5155745992    1.4193341284
C       -0.7749433453    0.5259193678   -0.2977446616
H        1.0266924568    1.5904265407    0.1436899998
H       -0.7029422398    0.3987852089   -1.3798942555
H       -1.3259118081    1.4505378830   -0.0991995830
O       -1.5651891161   -0.5823547435    0.2043662712
H       -1.1147022788   -0.8958566079    1.0184563689
