12   
Generated by ForceBalance from qchem.out: Frame 8 of 8
C        1.8922798415   -0.1262936880    0.0479981196
C        0.5119207109    0.5115884423   -0.0911921273
H        1.9855282346   -0.6411575233    1.0060422787
H        2.6803764650    0.6260420361   -0.0071029444
H        2.0741212814   -0.8570320446   -0.7433255214
H        0.3475437388    1.2228536050    0.7209565211
C       -0.6053793261   -0.5158199450   -0.0270340786
H        0.4363614653    1.0741359691   -1.0245114145
H       -0.4438634462   -1.1925072877    0.8168603068
H       -0.6323143833   -1.1226599405   -0.9358874626
O       -1.8746292101    0.1546026562    0.1919189555
H       -2.4484139826   -0.0645887525   -0.5729391660
