12   
Generated by ForceBalance from qchem.out: Frame 9 of 9
C        1.4882208572   -0.5473137002   -0.0898877623
C        0.6529318515    0.6791683499    0.2640395735
H        1.0428636200   -1.4445236568    0.3351455409
H        2.5041171789   -0.4444109455    0.2950976220
H        1.5493436794   -0.6816722584   -1.1718975680
H        0.6163101444    0.7843896637    1.3511474149
C       -0.7687194583    0.5946800257   -0.2658503165
H        1.1132428780    1.5901593647   -0.1286779616
H       -0.7801810320    0.7633771058   -1.3489075991
H       -1.3982924237    1.3581032824    0.2016340336
O       -1.2747203030   -0.7329075776    0.0167993844
H       -2.2490951535   -0.6858078455   -0.1070938525
