12   
Generated by ForceBalance from qchem.out: Frame 8 of 8
C        1.8169259617   -0.2254367616   -0.2210227098
C        0.5771511605    0.5772693547    0.1671670912
H        2.1034166898   -0.9163396512    0.5745318729
H        2.6680858979    0.4288221418   -0.4170819250
H        1.6259367121   -0.8113114637   -1.1217125169
H        0.7970480980    1.1958640525    1.0410042680
C       -0.6484451941   -0.3118909312    0.4282766530
H        0.3146789608    1.2577991001   -0.6449725246
H       -0.9757843603   -0.2547273524    1.4697260917
H       -0.4097342248   -1.3557268347    0.2187151099
O       -1.7510651831   -0.0019638760   -0.4626900343
H       -2.2839691830    0.6872216552   -0.0087364202
