12   
Generated by ForceBalance from qchem.out: Frame 8 of 8
C        1.4333351150   -0.5672923260    0.1116765598
C        0.6743938484    0.7291690002   -0.1529001818
H        1.3589418965   -0.8657376847    1.1607029641
H        2.4922232274   -0.4542068773   -0.1248919772
H        1.0301132250   -1.3709350356   -0.5028083626
H        1.1048040300    1.5560839834    0.4191074670
C       -0.8114087291    0.6233499919    0.1806853957
H        0.7783171572    0.9865998943   -1.2096630451
H       -1.3718716633    1.4357082639   -0.2833059519
H       -0.9633323466    0.6892989294    1.2625698375
O       -1.3988042425   -0.6030641989   -0.3212683261
H       -1.2955236860   -1.2657260891    0.3957427790
