12   
Generated by ForceBalance from qchem.out: Frame 8 of 8
C        1.4398923118   -0.5605289193    0.0346848935
C        0.6641373515    0.7464597044   -0.1322146270
H        1.2375526855   -1.0257438046    1.0000229249
H        2.5116451589   -0.3695294690   -0.0350305243
H        1.1980534465   -1.2829693008   -0.7471191686
H        1.0710123780    1.4980941686    0.5474100576
C       -0.8546646601    0.6313166562    0.1134223290
H        0.8415246742    1.1233543007   -1.1426710176
H       -1.3990427762    1.2189543693   -0.6322001928
H       -1.1112824350    1.0273331309    1.0964706679
O       -1.3778005349   -0.7187217784    0.1284750124
H       -0.8100881511   -1.2490724076   -0.4704328469
