12   
Generated by ForceBalance from qchem.out: Frame 12 of 12
C        1.7702089125   -0.3130786659   -0.1769603447
C        0.5616484385    0.3608256619    0.4702590933
H        1.5396538353   -1.3491890142   -0.4300264294
H        2.6325230405   -0.3099400579    0.4918165853
H        2.0574494804    0.2015224552   -1.0957190153
H        0.3207001168   -0.1670822048    1.3972516381
C       -0.6799309583    0.3579264005   -0.4360387290
H        0.8178090173    1.3839688778    0.7548027997
H       -0.4767170332   -0.1627659835   -1.3729104019
H       -0.9761248879    1.3824614623   -0.6831942646
O       -1.8185186838   -0.3333457040    0.1356814563
H       -1.7402089949   -0.2308140572    1.1089287497
