12   
Generated by ForceBalance from qchem.out: Frame 8 of 8
C        1.4521698965   -0.5722225369   -0.0585506519
C        0.6717104011    0.7143469394    0.1965649809
H        1.0328162822   -1.3922406156    0.5198267934
H        2.4979506489   -0.4412739397    0.2245499091
H        1.4188842765   -0.8554297335   -1.1120690909
H        0.7316061315    0.9450566398    1.2634033529
C       -0.7978091979    0.6217497205   -0.2111622394
H        1.1274002555    1.5568045813   -0.3300629651
H       -0.9191834711    0.9124179496   -1.2602129776
H       -1.4065053951    1.2992372715    0.3935194892
O       -1.2500915147   -0.7487795967   -0.0636137992
H       -2.2081707413   -0.7018110183    0.1489450740
