12   
Generated by ForceBalance from qchem.out: Frame 8 of 8
C        1.8792098911   -0.1336896742   -0.1010120817
C        0.5104615303    0.5134657196    0.0975203744
H        2.0870120959   -0.8633822537    0.6841390149
H        2.6737750113    0.6133623634   -0.0820283068
H        1.9236718199   -0.6506976616   -1.0607952602
H        0.4898417771    1.0911300955    1.0258503526
C       -0.6165532014   -0.5079885144    0.1095224225
H        0.3233395803    1.2128470290   -0.7226891965
H       -0.6007717617   -1.0823275956    1.0410944079
H       -0.4990572565   -1.2084606230   -0.7203478060
O       -1.9250606322    0.0948007639   -0.0512372495
H       -1.8071182959    1.0561614546    0.1098771973
