12   
Generated by ForceBalance from qchem.out: Frame 9 of 9
C        1.4285051470   -0.5976587310   -0.0692778706
C        0.7015765843    0.7359912573    0.0780373930
H        1.1204418759   -1.2948718655    0.7073437685
H        2.5069075472   -0.4477692605    0.0067336965
H        1.2133494897   -1.0632316459   -1.0314156543
H        0.9598639441    1.1621249473    1.0516000070
C       -0.8287659895    0.6181538389   -0.0461501193
H        1.0608691767    1.4471228662   -0.6693578541
H       -1.1424438818    0.9388561469   -1.0412611593
H       -1.3352680911    1.2610237146    0.6768547465
O       -1.2992986178   -0.7503024689    0.0688088343
H       -1.7009894665   -0.8371474633    0.9604408915
