12   
Generated by ForceBalance from qchem.out: Frame 8 of 8
C       -1.6715151327    0.3963334215    0.1692600956
C       -0.5791168024   -0.4403412407   -0.4940742229
H       -1.9686706204   -0.0507933446    1.1190282341
H       -2.5576908623    0.4668037263   -0.4635754378
H       -1.3255911429    1.4118933605    0.3746294324
H       -0.9632099730   -1.4513647489   -0.6559785205
C        0.6983033989   -0.5250376457    0.3372667742
H       -0.3259780307   -0.0528277340   -1.4848441054
H        1.2305387322   -1.4563136779    0.1340480348
H        0.4599835011   -0.4977615076    1.4049531350
O        1.6426484489    0.5363141116    0.0394656759
H        1.1457803711    1.2171311769   -0.4638531036
