12   
Generated by ForceBalance from qchem.out: Frame 8 of 8
C        1.3957414319   -0.6035032139    0.0282602353
C        0.6887505424    0.7485588684   -0.0344851456
H        1.2172124138   -1.1109466073    0.9787995052
H        2.4738635941   -0.4702146902   -0.0725310790
H        1.0495545116   -1.2558402085   -0.7715085356
H        1.0631350001    1.4033777643    0.7560258779
C       -0.8489487673    0.6534006030    0.0650766084
H        0.9557932083    1.2266694092   -0.9796056359
H       -1.3259883574    1.2587192275   -0.7045872582
H       -1.1921042567    1.0259449983    1.0348893804
O       -1.3723089682   -0.6804105886   -0.1437329010
H       -1.1736092527   -1.1785705644    0.6796950270
