12   
Generated by ForceBalance from qchem.out: Frame 8 of 8
C        1.6901175965   -0.4185239602   -0.1358614935
C        0.5970277455    0.5219125297    0.3674850976
H        1.3532346532   -1.4572737446   -0.1121958754
H        2.5907550251   -0.3473230552    0.4764221605
H        1.9650162716   -0.1781079067   -1.1647184393
H        0.3549213452    0.3175860544    1.4114482019
C       -0.7046322073    0.4211779284   -0.4327665335
H        0.9698581265    1.5487094028    0.3248212951
H       -0.5362595586   -0.0416314678   -1.4085638876
H       -1.1238975222    1.4135299071   -0.6083359340
O       -1.7240671112   -0.3008434137    0.3108355325
H       -1.7926291134   -1.1918347162   -0.0951669608
