12   
Generated by ForceBalance from qchem.out: Frame 9 of 9
C        1.5739398582   -0.4847517086   -0.1591468331
C        0.6143292621    0.5921444168    0.3363093220
H        1.1469931590   -1.4754159603    0.0026050191
H        2.5327207403   -0.4349253536    0.3595026987
H        1.7618314142   -0.3674454183   -1.2278890031
H        0.4812593671    0.5230042239    1.4194730446
C       -0.7523823626    0.4984912038   -0.3292791622
H        1.0385043575    1.5812684453    0.1365321302
H       -0.6522474809    0.2978879064   -1.3964413517
H       -1.3084548148    1.4343776614   -0.2133982507
O       -1.5325901202   -0.6044770536    0.1945875679
H       -1.8399130474   -0.3114466461    1.0813430805
