12   
Generated by ForceBalance from qchem.out: Frame 8 of 8
C        1.8396421483   -0.1841941561   -0.2202794531
C        0.5711142247    0.5477381486    0.2145838706
H        2.1172323398   -0.9583870016    0.4983687312
H        2.6827525853    0.5029238617   -0.3093321556
H        1.6949173576   -0.6655014382   -1.1895153331
H        0.7442931384    1.0761463956    1.1541216590
C       -0.6404084784   -0.3839021912    0.3465312516
H        0.3145832514    1.3071015210   -0.5264928382
H       -0.8889817698   -0.5640510737    1.3937481402
H       -0.4267960366   -1.3546132583   -0.1090163422
O       -1.8249337252    0.1960715766   -0.2636121303
H       -1.9634183747   -0.2830681728   -1.1083237836
