12   
Generated by ForceBalance from qchem.out: Frame 9 of 9
C        1.4292357913   -0.5798105604    0.0889848443
C        0.6633523695    0.7111498610   -0.1824969901
H        1.3970470579   -0.8466081336    1.1486217224
H        2.4778633072   -0.4777083418   -0.1938117863
H        0.9993400202   -1.4000011514   -0.4841971628
H        1.1220648344    1.5532690047    0.3435982462
C       -0.8059763568    0.6229456906    0.2213721810
H        0.7204749489    0.9353672400   -1.2502778636
H       -1.3841580039    1.4223000141   -0.2435198086
H       -0.9088204913    0.7246533774    1.3062038337
O       -1.4192933619   -0.6162976824   -0.2138744159
H       -1.2856626126   -1.2563629607    0.5185119038
