12   
Generated by ForceBalance from qchem.out: Frame 7 of 7
C        1.8699329420   -0.1232827593   -0.1609738945
C        0.5217878844    0.4926153706    0.2080421093
H        2.1168934250   -0.9583541216    0.4977515168
H        2.6727592066    0.6112522373   -0.0833869442
H        1.8496987525   -0.4982446301   -1.1852214965
H        0.5577461031    0.9499442751    1.1994317941
C       -0.6206661641   -0.5176421576    0.1287281264
H        0.3134155480    1.2973190408   -0.5046554095
H       -0.7389733977   -1.0483834056    1.0767598652
H       -0.4013882790   -1.2591494096   -0.6447383501
O       -1.8987227444    0.0769240126   -0.2125113787
H       -1.7396014992    1.0386429100   -0.3216652283
