12   
Generated by ForceBalance from qchem.out: Frame 7 of 7
C        1.5847367497   -0.4960083020    0.1296519014
C        0.6234656758    0.5984106639   -0.3223458823
H        1.7952771887   -0.4082792552    1.1974850113
H        2.5336590572   -0.4356660124   -0.4057744437
H        1.1505812700   -1.4795109121   -0.0527385086
H        1.0549861029    1.5810283180   -0.1094340395
C       -0.7266185312    0.5039488260    0.3614127540
H        0.4574825745    0.5482889281   -1.4003605792
H       -1.2998862923    1.4268581040    0.2218228429
H       -0.6021574511    0.3399149408    1.4369220569
O       -1.4336729853   -0.6050088024   -0.2485611000
H       -2.1872241193   -0.8161955521    0.3471093838
