12   
Generated by ForceBalance from qchem.out: Frame 7 of 7
C        1.4957978089   -0.5361735237    0.1290551599
C        0.6632004548    0.6847088253   -0.2470859262
H        1.5072791712   -0.6814007207    1.2110140390
H        2.5270788901   -0.4226232457   -0.2087591415
H        1.0788035240   -1.4357927033   -0.3200573564
H        1.0969048505    1.5970085624    0.1726716659
C       -0.7824942776    0.5754239492    0.2242900153
H        0.6781765099    0.8084947319   -1.3348715205
H       -1.3984121042    1.3718898760   -0.2046616406
H       -0.8281223492    0.6651363512    1.3107071218
O       -1.3617118687   -0.7232527986   -0.0455840855
H       -1.5472353882   -0.7407892066   -1.0119584124
