12   
Generated by ForceBalance from qchem.out: Frame 12 of 12
C        1.8961647634   -0.1335468160   -0.0457887463
C        0.5212451262    0.5195004697    0.0726796759
H        2.0736467481   -0.8369987358    0.7708439761
H        2.6892969976    0.6150403685   -0.0176089168
H        1.9852727746   -0.6821165710   -0.9853584632
H        0.4498609992    1.1166115642    0.9837349650
C       -0.6019437446   -0.4993060016    0.0539312365
H        0.3604377574    1.1995020342   -0.7666930445
H       -0.6484368508   -1.0418593069    1.0039038047
H       -0.4370672124   -1.2325486740   -0.7438051768
O       -1.8330716985    0.2229166831   -0.1890671095
H       -2.5653532935   -0.3919203929    0.0406214011
