12   
Generated by ForceBalance from qchem.out: Frame 7 of 7
C        1.5183535953   -0.5391913847   -0.1156264953
C        0.6520605389    0.6582342955    0.2585768029
H        1.0758064374   -1.4578254661    0.2668211605
H        2.5236930539   -0.4397798684    0.2967278776
H        1.6084422214   -0.6302740975   -1.2004571411
H        0.5879907895    0.7455713665    1.3458413953
C       -0.7556890834    0.5537683456   -0.2960479881
H        1.0995706486    1.5863421931   -0.1095396642
H       -0.7221230249    0.5010723772   -1.3889780988
H       -1.3529848590    1.4279127059   -0.0169089439
O       -1.3628989756   -0.6467872061    0.2455529291
H       -2.0024410516   -0.9657840475   -0.4282946527
