12   
Generated by ForceBalance from qchem.out: Frame 8 of 8
C        1.5380713274   -0.5171414866   -0.1075667318
C        0.6480582752    0.6509111421    0.3030775805
H        1.0864443387   -1.4601676660    0.1991458524
H        2.5253922165   -0.4403688600    0.3506692486
H        1.6701062003   -0.5407344090   -1.1912301647
H        0.5547747922    0.6878945464    1.3911766120
C       -0.7426574660    0.5460609709   -0.2974357912
H        1.0956616065    1.5982704301   -0.0137029492
H       -0.6857001194    0.5105861281   -1.3890263615
H       -1.3495912334    1.4121896363   -0.0219826529
O       -1.3757791236   -0.6835278993    0.1503773783
H       -2.1894944548   -0.4215923774    0.6314263412
