12   
Generated by ForceBalance from qchem.out: Frame 8 of 8
C        1.8839780564   -0.1420629075    0.0723865949
C        0.5223249828    0.5273992196   -0.0992844525
H        1.9399146258   -0.6645316594    1.0292184254
H        2.6898375035    0.5927110564    0.0434584385
H        2.0707491500   -0.8720449274   -0.7184811524
H        0.3500089227    1.2335179978    0.7157214208
C       -0.6183359681   -0.4758323215   -0.0781886005
H        0.4856791431    1.1012297161   -1.0280361122
H       -0.4954522296   -1.1646646491    0.7623731615
H       -0.6323923274   -1.0724039826   -0.9941127740
O       -1.8786335644    0.2199568135    0.1116517413
H       -2.4348385960    0.0212653958   -0.6715549983
