12   
Generated by ForceBalance from qchem.out: Frame 8 of 8
C        1.8729256045   -0.1431374500    0.1450111123
C        0.5338289662    0.5304523677   -0.1471839653
H        1.8481280640   -0.6435223188    1.1147940049
H        2.6839114891    0.5866270040    0.1635584425
H        2.1176246930   -0.8917210153   -0.6120577733
H        0.3038515841    1.2419669141    0.6480536990
C       -0.6179332756   -0.4652808482   -0.1978947659
H        0.5809934765    1.0997605085   -1.0775576961
H       -0.4071348515   -1.2999700542    0.4780512679
H       -0.7526795364   -0.8777461168   -1.2029610925
O       -1.8267280074    0.2125867105    0.2317031526
H       -2.3936780307   -0.4713396927    0.6505987878
