12   
Generated by ForceBalance from qchem.out: Frame 7 of 7
C        1.7116055857   -0.3775195265   -0.1509758939
C        0.5666058582    0.4502404950    0.4300888433
H        1.4159310077   -1.4195932793   -0.2936038977
H        2.5832840572   -0.3662051359    0.5055008410
H        2.0167594085    0.0160488379   -1.1219667902
H        0.2973688084    0.1013051727    1.4297674999
C       -0.6963154856    0.4279485060   -0.4391222589
H        0.9068241124    1.4817344122    0.5523450659
H       -0.4541924468    0.1064232072   -1.4580794541
H       -1.1534257213    1.4153693173   -0.5007567041
O       -1.7444877465   -0.4093146975    0.1079177422
H       -1.3024164471   -1.2416277056    0.3898104908
