12   
Generated by ForceBalance from qchem.out: Frame 8 of 8
C        1.9017357122   -0.1378175182    0.0454506084
C        0.5258358312    0.5220171630   -0.0109322636
H        2.0029233247   -0.7587215117    0.9380829402
H        2.6957318916    0.6099683599    0.0670856528
H        2.0671793182   -0.7753932015   -0.8255632516
H        0.3701270806    1.1488434318    0.8700349368
C       -0.5955654507   -0.4989264126   -0.0782422419
H        0.4489165883    1.1759081844   -0.8819908093
H       -0.5494029635   -1.1709700115    0.7831055784
H       -0.5037939797   -1.1107684821   -0.9798883951
O       -1.8759815945    0.1835318183   -0.1297738389
H       -2.3838791762   -0.1092862284    0.6564056827
