12   
Generated by ForceBalance from qchem.out: Frame 8 of 8
C        1.6980443399   -0.4241285066    0.0883881766
C        0.5861369939    0.5222389325   -0.3583694787
H        2.0016318154   -0.2094190443    1.1148871531
H        2.5799193714   -0.3315689480   -0.5479058961
H        1.3636713969   -1.4629449225    0.0461556334
H        0.9531245889    1.5503809667   -0.3007840115
C       -0.6892961232    0.3896352430    0.4762700868
H        0.3139698812    0.3409139657   -1.3990932734
H       -1.1042824601    1.3731529063    0.7093502188
H       -0.4878820635   -0.1153799977    1.4241832836
O       -1.7078086659   -0.3228794316   -0.2801610584
H       -1.9348558007   -1.1277835290    0.2328651838
