12   
Generated by ForceBalance from qchem.out: Frame 8 of 8
C        1.7381048163   -0.3721608580   -0.0334720956
C        0.5600776185    0.5289852215    0.3285182045
H        1.4574766768   -1.4233355421    0.0532688824
H        2.5926750654   -0.1941618075    0.6215747407
H        2.0600760646   -0.1928778313   -1.0609212566
H        0.2767928011    0.3752852846    1.3719330636
C       -0.6760017286    0.2709498005   -0.5446091668
H        0.8681945129    1.5742400237    0.2370604185
H       -0.4258717737   -0.3597755861   -1.3980047386
H       -1.0869094197    1.2070031621   -0.9347923426
O       -1.7106130632   -0.4593392918    0.1601594568
H       -2.1225553972    0.1908237138    0.7716713493
