12   
Generated by ForceBalance from qchem.out: Frame 7 of 7
C        1.8479526045   -0.1372613041    0.2229172400
C        0.5433682314    0.4935158867   -0.2610570878
H        1.7423117589   -0.4852007989    1.2514782639
H        2.6702769604    0.5790713578    0.1886775289
H        2.1256109692   -0.9936791938   -0.3948583666
H        0.3044419552    1.3299507231    0.4018931303
C       -0.6350522137   -0.4864481742   -0.2272119602
H        0.6673076792    0.9087763752   -1.2638628070
H       -0.4068371676   -1.3375681564    0.4163060747
H       -0.8458814411   -0.8736795531   -1.2293161256
O       -1.8433907976    0.0846287594    0.3337931487
H       -1.8132751530    1.0443973472    0.1271414284
