12   
Generated by ForceBalance from qchem.out: Frame 8 of 8
C        1.4417627562   -0.5935465628    0.0448684067
C        0.7082668656    0.7369730160   -0.1001997117
H        1.2549723754   -1.0467888262    1.0188051213
H        2.5172238605   -0.4414299308   -0.0623399589
H        1.1130726558   -1.3003457697   -0.7141278032
H        1.0957844667    1.4631121216    0.6181271027
C       -0.8154048936    0.6239447756    0.0818701064
H        0.9283281741    1.1425161785   -1.0915167613
H       -1.3428910016    1.2412233598   -0.6480304316
H       -1.0983890310    0.9811397460    1.0749145507
O       -1.2667167678   -0.7550734611    0.0058286035
H       -1.8990705590   -0.8057240520   -0.7426217130
