12   
Generated by ForceBalance from qchem.out: Frame 7 of 7
C        1.4342219818   -0.5708441239    0.0885593641
C        0.6542205849    0.7121890599   -0.1834351823
H        1.3926626812   -0.8481845576    1.1453261648
H        2.4849171854   -0.4510949526   -0.1788700901
H        1.0302133451   -1.3938035809   -0.5002045922
H        1.1096481834    1.5590729841    0.3373886077
C       -0.8130755015    0.6161500400    0.2287503139
H        0.7054002812    0.9313589980   -1.2526074004
H       -1.4017432118    1.4057781204   -0.2380210270
H       -0.9078029853    0.7249087051    1.3146621564
O       -1.4336112633   -0.6223424382   -0.1898235898
H       -1.0896134818   -1.3115080340    0.4201217574
