12   
Generated by ForceBalance from qchem.out: Frame 12 of 12
C        1.5600113854   -0.4593076350    0.1992278112
C        0.6075448612    0.6180849861   -0.3170183585
H        1.7023819914   -0.3586199318    1.2764960044
H        2.5370053331   -0.3848785279   -0.2807208324
H        1.1760468055   -1.4641203843    0.0103879703
H        1.0269022842    1.6024836129   -0.0910091155
C       -0.7813588918    0.5296931542    0.2974996890
H        0.5097804212    0.5651430198   -1.4050217134
H       -1.3494692032    1.4397785815    0.0945572998
H       -0.7065214080    0.4097536266    1.3830211278
O       -1.5691997155   -0.5622190771   -0.2413292787
H       -0.9426191993   -1.1523612688   -0.7131794180
