12   
Generated by ForceBalance from qchem.out: Frame 12 of 12
C        1.5976077007   -0.4602046519    0.1173019214
C        0.5928530553    0.5653598080   -0.4058242561
H        1.8238781170   -0.2742581021    1.1687674673
H        2.5323479331   -0.4152500900   -0.4435960602
H        1.2198910983   -1.4820411439    0.0361945532
H        1.0255732159    1.5652857269   -0.3106231499
C       -0.7335183483    0.5401344115    0.3398049971
H        0.3954087257    0.4087514095   -1.4694700279
H       -1.3325363809    1.4183824451    0.0954197546
H       -0.5553471097    0.5394472071    1.4209991438
O       -1.5608342181   -0.5937291343   -0.0176823275
H       -0.9441464785   -1.3185606621   -0.2609564572
