12   
Generated by ForceBalance from qchem.out: Frame 8 of 8
C        1.8913383012   -0.1222953830   -0.0304369268
C        0.5049300283    0.5153925104    0.0151793886
H        2.0423866541   -0.7860724907    0.8227416780
H        2.6735708315    0.6374677167   -0.0079953439
H        2.0191694161   -0.7102755729   -0.9410049703
H        0.4088987055    1.1339047764    0.9123742232
C       -0.6070563619   -0.5196154300    0.0152416895
H        0.3698546589    1.1741261698   -0.8477615825
H       -0.5102567459   -1.1780641854    0.8828501310
H       -0.5485535747   -1.1364521395   -0.8857696911
O       -1.9286657447    0.0750591896    0.0584132327
H       -1.7945685582    1.0471957314    0.0784175589
