12   
Generated by ForceBalance from qchem.out: Frame 8 of 8
C        1.8716938615   -0.1284413033    0.1764520178
C        0.5448877087    0.5247786167   -0.2052800549
H        1.8005058851   -0.5846164505    1.1651533130
H        2.6807516189    0.6034020304    0.1987768233
H        2.1498673373   -0.9099830435   -0.5340430837
H        0.2832273856    1.2702713095    0.5482648964
C       -0.6123742113   -0.4785776832   -0.2548211056
H        0.6408414588    1.0548244091   -1.1561769571
H       -0.3502585647   -1.3727722589    0.3133347193
H       -0.8357221339   -0.7945554739   -1.2773914589
O       -1.8038878782    0.0262827998    0.4002966617
H       -2.3208059139    0.4969591721   -0.2902082192
