12   
Generated by ForceBalance from qchem.out: Frame 12 of 12
C        1.8107308129   -0.1381560899    0.2857434488
C        0.5610820658    0.4881454971   -0.3284982484
H        1.6195482546   -0.4445093044    1.3158186254
H        2.6436172966    0.5670989285    0.2924191293
H        2.1258445311   -1.0206929185   -0.2748756055
H        0.2709934590    1.3748058564    0.2376338154
C       -0.6428868804   -0.4552608199   -0.3264300972
H        0.7777441230    0.8203329474   -1.3460314597
H       -0.3812789298   -1.4178645611    0.1261835836
H       -0.9997726476   -0.6520016800   -1.3424764529
O       -1.6882545863    0.1833424430    0.4495120297
H       -2.4535829345   -0.4354710520    0.4406742306
