12   
Generated by ForceBalance from qchem.out: Frame 12 of 12
C        1.5408272658   -0.5052904410   -0.1666614961
C        0.6288336344    0.6249820736    0.2990587579
H        1.0937155293   -1.4719512299    0.0671922047
H        2.5165827380   -0.4526572196    0.3190347512
H        1.6993588427   -0.4543063365   -1.2458076580
H        0.5180956505    0.6107659867    1.3852281025
C       -0.7574604272    0.5404832885   -0.3096348905
H        1.0695175163    1.5904806464    0.0334988381
H       -0.6944728506    0.3398228181   -1.3842718551
H       -1.3024427331    1.4804011133   -0.1700632405
O       -1.4547070208   -0.5320401408    0.3727233672
H       -2.2432935385   -0.7445308806   -0.1752398678
