12   
Generated by ForceBalance from qchem.out: Frame 7 of 7
C        1.8811653477   -0.1360506421   -0.1343278086
C        0.5299515160    0.5224457208    0.1372416767
H        2.1164800725   -0.8873996640    0.6224899738
H        2.6860096374    0.6004298080   -0.1341012040
H        1.8741982429   -0.6301515455   -1.1069995748
H        0.5572976771    1.0900066039    1.0713055420
C       -0.6163656950   -0.4849044110    0.1653168523
H        0.3176359857    1.2335660214   -0.6653137399
H       -0.7210251262   -0.9309815013    1.1603370282
H       -0.4304738004   -1.2917170817   -0.5446353380
O       -1.8745043999    0.0862310745   -0.2665193647
H       -1.9432615720    0.9558748754    0.1881838821
