12   
Generated by ForceBalance from qchem.out: Frame 7 of 7
C        1.6132047938   -0.4672664716    0.1353236697
C        0.6221975177    0.5808307162   -0.3599033655
H        1.8451819730   -0.3069062765    1.1897189184
H        2.5485376350   -0.4293503181   -0.4254401746
H        1.1900143182   -1.4671315078    0.0300295618
H        1.0377642047    1.5816319043   -0.2052458835
C       -0.7201887479    0.4891383023    0.3538260307
H        0.4544129289    0.4761930303   -1.4353934450
H       -1.2930776880    1.4137312641    0.2296467767
H       -0.5813353265    0.3216158402    1.4223805385
O       -1.5012068071   -0.6397576321   -0.1099045984
H       -1.8420556667   -0.3782563143   -0.9942678954
