12   
Generated by ForceBalance from qchem.out: Frame 8 of 8
C        1.8190463947   -0.1685274059    0.2449691260
C        0.5508795051    0.5145184910   -0.2626144489
H        1.6630734538   -0.5712948362    1.2474614948
H        2.6535119074    0.5332914199    0.2902480520
H        2.1144693581   -0.9943253664   -0.4060803651
H        0.2699276166    1.3173809057    0.4210658192
C       -0.6421442508   -0.4383446920   -0.3405208038
H        0.7334893391    0.9767303945   -1.2347681618
H       -0.4309036210   -1.3446531007    0.2352259731
H       -0.8531815681   -0.7430248551   -1.3703124553
O       -1.8008555676    0.2325071139    0.2212503900
H       -2.3691358040   -0.4704527105    0.6059196127
