12   
Generated by ForceBalance from qchem.out: Frame 8 of 8
C        1.8882595084   -0.1470346998   -0.1208181144
C        0.5479119595    0.5413901350    0.1280655839
H        2.1228441175   -0.8646844799    0.6686417214
H        2.7018527217    0.5787161450   -0.1620354278
H        1.8697447865   -0.6872256677   -1.0689149621
H        0.5835605051    1.1432932791    1.0393504549
C       -0.6122710890   -0.4470806693    0.1872420313
H        0.3349996102    1.2264951262   -0.6950477162
H       -0.7326057629   -0.8723064300    1.1869090339
H       -0.4223857144   -1.2746593062   -0.5002385993
O       -1.8450125500    0.1665445057   -0.2724732766
H       -2.3879940655    0.3441407009    0.5257015233
