12   
Generated by ForceBalance from qchem.out: Frame 8 of 8
C        1.8528293950   -0.1362524804   -0.1995231306
C        0.5327947645    0.4708920996    0.2713402431
H        2.1123824684   -1.0203005370    0.3864119158
H        2.6712449825    0.5787309494   -0.1041658474
H        1.7836248619   -0.4363214937   -1.2461604744
H        0.6153011289    0.8443591227    1.2943444233
C       -0.6327191511   -0.5100311491    0.1529599153
H        0.3167409202    1.3384859833   -0.3612529891
H       -0.7432523869   -1.1058056139    1.0609406093
H       -0.4429744749   -1.1980892787   -0.6775148576
O       -1.9105836940    0.1296367855   -0.0880676944
H       -1.7119590148    1.0500084920   -0.3638006808
