12   
Generated by ForceBalance from qchem.out: Frame 6 of 6
C       -1.7124473895   -0.3503904985    0.1973968685
C       -0.5764921345    0.3851146770   -0.5107543958
H       -1.4057796623   -1.3553046994    0.4952695273
H       -2.5886503535   -0.4428299624   -0.4465704155
H       -2.0123286753    0.1868578318    1.0983967886
H       -0.3269146312   -0.1024186316   -1.4573987138
C        0.6931003004    0.4988314229    0.3420730041
H       -0.9217098250    1.3867955029   -0.7797259893
H        0.4604894175    0.3046482679    1.3936230140
H        1.1201904379    1.5010442369    0.2747915257
O        1.7537488060   -0.4024652231   -0.0692713410
H        1.3412540498   -1.0669480694   -0.6617877557
