12   
Generated by ForceBalance from qchem.out: Frame 6 of 6
C       -1.7469016983    0.3356878881    0.2028912167
C       -0.5793683742   -0.3577191465   -0.4959712461
H       -2.0443143103   -0.2190694732    1.0942313942
H       -2.6165032693    0.4099366987   -0.4522656755
H       -1.4667824950    1.3442495292    0.5122172206
H       -0.8859711325   -1.3656946492   -0.7871939500
C        0.6809747298   -0.4407051379    0.3762149184
H       -0.3392790710    0.1642595184   -1.4267793381
H        1.0985027840   -1.4522885470    0.3408449936
H        0.4546818086   -0.2106846429    1.4181713829
O        1.7187611813    0.4953890665   -0.0088994720
H        1.6197761396    0.6293568479   -0.9762810943
