12   
Generated by ForceBalance from qchem.out: Frame 12 of 12
C        1.4665339004   -0.5354464998    0.1673301168
C        0.6490600528    0.6980163136   -0.2063859978
H        1.4121416525   -0.7271817030    1.2404872879
H        2.5153986404   -0.4009469214   -0.1014113061
H        1.0953243722   -1.4231935550   -0.3426093949
H        1.0618234962    1.5924985410    0.2681515911
C       -0.8211258522    0.5794753971    0.1779641017
H        0.7213348067    0.8637984904   -1.2865808367
H       -1.3999508686    1.3905147084   -0.2770748396
H       -0.9407556988    0.6453278086    1.2602723243
O       -1.3982441102   -0.7014617944   -0.1664665466
H       -1.0937144809   -0.8965583470   -1.0818291315
