12   
Generated by ForceBalance from qchem.out: Frame 8 of 8
C        1.5818012591   -0.4999955352    0.1205153797
C        0.6290957582    0.6085493701   -0.3140003000
H        1.7859187319   -0.4372337579    1.1914506925
H        2.5346508149   -0.4339589008   -0.4071261820
H        1.1431274269   -1.4765641531   -0.0870823242
H        1.0633817082    1.5851632069   -0.0797464384
C       -0.7264126082    0.5047677787    0.3585185362
H        0.4699940910    0.5798564099   -1.3939529526
H       -1.2975813266    1.4307311681    0.2347524737
H       -0.6077380623    0.3205113513    1.4306497916
O       -1.4439582757   -0.5866899986   -0.2744984672
H       -2.0413166641   -0.9653006290    0.4076315276
