12   
Generated by ForceBalance from qchem.out: Frame 12 of 12
C        1.7772229102   -0.3380769868    0.0735974841
C        0.5594114342    0.4772881099   -0.3566318286
H        2.0630673399   -0.1026429103    1.1006271982
H        2.6373088321   -0.1365331244   -0.5671411652
H        1.5584431642   -1.4058958661    0.0219008298
H        0.8052396915    1.5420514267   -0.3445965638
C       -0.6780105650    0.2029291032    0.5126101100
H        0.3055814333    0.2226305145   -1.3882343063
H       -0.9805935292    1.0993067417    1.0635472862
H       -0.4736785756   -0.5797004896    1.2434907102
O       -1.7992927251   -0.3107513395   -0.2461603650
H       -2.0074337558    0.3823985998   -0.9123305882
