12   
Generated by ForceBalance from qchem.out: Frame 8 of 8
C        1.4359851525   -0.5996272919   -0.0113249594
C        0.7141762968    0.7447507733    0.0284337875
H        1.1692594806   -1.2150283944    0.8468217639
H        2.5160533183   -0.4423440742    0.0009770136
H        1.1773456775   -1.1592099859   -0.9090716229
H        1.0180686932    1.2837462957    0.9293355839
C       -0.8244367736    0.6287473092   -0.0060773370
H        1.0449025717    1.3554250654   -0.8145360360
H       -1.2225610490    1.1250426600   -0.8936021333
H       -1.2664556581    1.1184374632    0.8638773806
O       -1.2644702180   -0.7547612308   -0.0699585994
H       -1.8131197739   -0.9128872539    0.7274818382
