12   
Generated by ForceBalance from qchem.out: Frame 7 of 7
C        1.8831667574   -0.1180587135    0.0821600374
C        0.5070427794    0.5150735222   -0.1102947710
H        1.9341538467   -0.6450262953    1.0362025371
H        2.6686950524    0.6386348109    0.0708474269
H        2.0992517282   -0.8365515970   -0.7109894121
H        0.3198173159    1.2101024276    0.7144076672
C       -0.6089178457   -0.5187974130   -0.1187967052
H        0.4755974531    1.0972447842   -1.0349757102
H       -0.4628748956   -1.2271384225    0.7016223543
H       -0.6053370473   -1.0824052532   -1.0554966768
O       -1.9255614948    0.0655007879    0.0475889416
H       -1.7913509732    1.0340260059    0.1311619172
