12   
Generated by ForceBalance from qchem.out: Frame 12 of 12
C        1.5707577459   -0.4815999604   -0.1737290833
C        0.6122220436    0.5897552516    0.3364535966
H        1.1379393256   -1.4735758847   -0.0372283625
H        2.5257040786   -0.4476737368    0.3531538682
H        1.7672145341   -0.3423819322   -1.2381598643
H        0.4874043812    0.5134236329    1.4207421439
C       -0.7585076928    0.5047684749   -0.3217175315
H        1.0339366054    1.5812378481    0.1441548018
H       -0.6697800494    0.3186908070   -1.3921974344
H       -1.3094112108    1.4417653082   -0.1849711930
O       -1.5435045594   -0.5995249812    0.1888317121
H       -1.6388922626   -0.4282580855    1.1527988333
