12   
Generated by ForceBalance from qchem.out: Frame 8 of 8
C        1.7505234120   -0.3690040779    0.1038097758
C        0.5935601701    0.4857789601   -0.4079041571
H        2.0428657971   -0.0656114570    1.1109347062
H        2.6265164219   -0.2775178848   -0.5407400198
H        1.4656178922   -1.4221060866    0.1387069762
H        0.9090423752    1.5319914956   -0.4373501490
C       -0.6720904835    0.3521252752    0.4430915443
H        0.3296484436    0.2048053773   -1.4282998719
H       -1.1032012444    1.3351521464    0.6478670532
H       -0.4519150834   -0.1183821025    1.4059439343
O       -1.6420929537   -0.4668355972   -0.2667983888
H       -2.5070257587   -0.0109293566   -0.1861279089
