12   
Generated by ForceBalance from qchem.out: Frame 7 of 7
C        1.8857591052   -0.1190110156   -0.1039012280
C        0.5235906120    0.5137383519    0.1725166635
H        2.0993279069   -0.9190957459    0.6077841604
H        2.6856176725    0.6185918829   -0.0260488680
H        1.9172092145   -0.5467684858   -1.1074747425
H        0.5075478159    1.0013137679    1.1495228748
C       -0.6105261528   -0.4990565119    0.0860914311
H        0.3421832491    1.2965985497   -0.5714469199
H       -0.6483098098   -1.1308121240    0.9737871872
H       -0.4560881987   -1.1489755391   -0.7833601135
O       -1.9136089181    0.1214830501   -0.0002305129
H       -1.8188445740    0.8445318326   -0.6595973688
