12   
Generated by ForceBalance from qchem.out: Frame 12 of 12
C        1.8095243740   -0.2962897255    0.1188828790
C        0.5587767503    0.5756041462    0.0305428203
H        1.6372661827   -1.1490416499    0.7781819348
H        2.6563486551    0.2681265140    0.5129309752
H        2.0955282860   -0.6828678709   -0.8618513868
H        0.2858602705    0.9251456493    1.0276749296
C       -0.6505308704   -0.1806199008   -0.5200088000
H        0.7591640298    1.4639879439   -0.5717140227
H       -0.4613381641   -1.2578951285   -0.4856374550
H       -0.8571794619    0.0853030465   -1.5613581954
O       -1.8023105246    0.1347170643    0.3059807832
H       -2.3868294835   -0.6544111646    0.2801368200
