12   
Generated by ForceBalance from qchem.out: Frame 8 of 8
C        1.8687233048   -0.1218879961   -0.1650730176
C        0.5325104980    0.5231836767    0.1981477815
H        2.1227375962   -0.9281677619    0.5266025017
H        2.6802300854    0.6069078130   -0.1367868629
H        1.8315781866   -0.5451856576   -1.1706357877
H        0.5875771543    1.0138994596    1.1715507193
C       -0.6256030136   -0.4752207861    0.1813766663
H        0.3032027271    1.3052515810   -0.5298104294
H       -0.7786119684   -0.9202303782    1.1652784103
H       -0.4134771471   -1.2898188626   -0.5179303169
O       -1.8823123253    0.1579415142   -0.1681640974
H       -1.9500832556    0.0990649554   -1.1459061081
