12   
Generated by ForceBalance from qchem.out: Frame 8 of 8
C        1.8573557084   -0.1399885654    0.1826412181
C        0.5252470755    0.5082844652   -0.1897228522
H        1.7999414845   -0.5975313748    1.1720552194
H        2.6640108445    0.5944934825    0.1976401394
H        2.1322472328   -0.9207712163   -0.5298282552
H        0.2782232445    1.2657187046    0.5591266226
C       -0.6258394735   -0.4981206729   -0.2316151820
H        0.5982162608    1.0328974989   -1.1440910550
H       -0.4200219377   -1.3345124900    0.4449659158
H       -0.7597486146   -0.9095154416   -1.2320604656
O       -1.8986936026    0.1019567299    0.1074065694
H       -1.8784431683    0.2293496144    1.0817759609
