12   
Generated by ForceBalance from qchem.out: Frame 8 of 8
C        1.8771565167   -0.1338983699   -0.1398907256
C        0.5252430439    0.4988918406    0.1813631856
H        2.1209467799   -0.9352106503    0.5614927792
H        2.6784747151    0.6049525887   -0.0902989237
H        1.8721007916   -0.5592244862   -1.1449642313
H        0.5443375913    0.9921449553    1.1550778599
C       -0.6173322433   -0.5048206190    0.1275139859
H        0.3024392758    1.2705744971   -0.5586263200
H       -0.7554125904   -0.9971187611    1.0944534112
H       -0.4058478977   -1.2826176283   -0.6144583322
O       -1.8168820786    0.2087267449   -0.2674754056
H       -2.5736922183   -0.2595911558    0.1490094080
