12   
Generated by ForceBalance from qchem.out: Frame 8 of 8
C        1.7382442924   -0.3720594790    0.0333591561
C        0.5602243174    0.5294188574   -0.3278150636
H        2.0584301062   -0.1956697253    1.0618682466
H        2.5937613510   -0.1914965521   -0.6197473424
H        1.4584583236   -1.4231520917   -0.0569962154
H        0.8682131399    1.5745984379   -0.2350954206
C       -0.6760880754    0.2702035513    0.5446385309
H        0.2772141561    0.3768751729   -1.3714768269
H       -1.0871529308    1.2057407934    0.9358903354
H       -0.4261575670   -0.3615881312    1.3973031178
O       -1.7104566140   -0.4592906290   -0.1613056083
H       -2.1222841470    0.1915925924   -0.7721284477
