12   
Generated by ForceBalance from qchem.out: Frame 12 of 12
C        1.6228337312   -0.4255729589   -0.1832042589
C        0.5943645697    0.5633130668    0.3636731487
H        1.2590688518   -1.4547426430   -0.1303116889
H        2.5567296146   -0.3788135363    0.3792480429
H        1.8464679931   -0.2069238629   -1.2286990068
H        0.4144064828    0.4018053978    1.4288966862
C       -0.7479550151    0.4932283899   -0.3600380113
H        0.9982638916    1.5748442549    0.2658842188
H       -0.6013090048    0.2541698333   -1.4191873237
H       -1.2750544284    1.4454943142   -0.2992493828
O       -1.6608190321   -0.4533837241    0.2471061800
H       -1.1301417884   -1.2624191005    0.4250122656
