12   
Generated by ForceBalance from qchem.out: Frame 12 of 12
C        1.5409412679   -0.5024865838   -0.1461208168
C        0.6287039538    0.6451488962    0.2778157603
H        1.1208775550   -1.4629294952    0.1583178927
H        2.5288212984   -0.4153934280    0.3087750780
H        1.6707589237   -0.5154692594   -1.2304753768
H        0.5236087885    0.6728725602    1.3639466485
C       -0.7645839321    0.5435422329   -0.3234979182
H        1.0738244870    1.5967320426   -0.0288514171
H       -0.7174920348    0.3661882197   -1.4021754252
H       -1.3160771333    1.4707152368   -0.1601325437
O       -1.5525972168   -0.4812392732    0.3347434965
H       -1.3895517807   -1.3151673785   -0.1580796741
