12   
Generated by ForceBalance from qchem.out: Frame 8 of 8
C        1.6199746627   -0.4729575377   -0.1154350901
C        0.6035340186    0.5655458486    0.3503275133
H        1.2103542310   -1.4806399915   -0.0203801875
H        2.5368434087   -0.4280301036    0.4746814433
H        1.8857302527   -0.3116942882   -1.1620607607
H        0.3782463334    0.4479644369    1.4114774102
C       -0.7141522148    0.4875694370   -0.4099473071
H        1.0298570038    1.5648945177    0.2220136627
H       -0.5533112718    0.1781720516   -1.4457113423
H       -1.2066587437    1.4631360689   -0.4268958785
O       -1.6177601275   -0.4248763956    0.2735432764
H       -1.8326829338   -1.1438323763   -0.3586729244
