12   
Generated by ForceBalance from qchem.out: Frame 8 of 8
C        1.9036174248   -0.1271935348    0.0338454589
C        0.5237264639    0.5159124443   -0.0816846498
H        1.9985644191   -0.6739225972    0.9739448779
H        2.6916460402    0.6266215364    0.0030002112
H        2.0841355296   -0.8307388719   -0.7820134503
H        0.3695562313    1.2142843006    0.7437516964
C       -0.5959453231   -0.5076026216   -0.0262461169
H        0.4385753661    1.0935663972   -1.0044435742
H       -0.4255614165   -1.2134580579    0.7930034548
H       -0.6406169271   -1.0823815844   -0.9554351569
O       -1.8465967114    0.1879573945    0.2161799094
H       -2.5075160885   -0.1906966267   -0.4026447222
