12   
Generated by ForceBalance from qchem.out: Frame 8 of 8
C        1.6456004290   -0.4335328389    0.1555181457
C        0.5963827037    0.5366215536   -0.3805744804
H        1.8816514538   -0.2083277823    1.1972068413
H        2.5715634281   -0.3745327508   -0.4191343042
H        1.2810087570   -1.4610076771    0.1056901493
H        0.9842110363    1.5565263917   -0.3008552878
C       -0.7285597147    0.4488150563    0.3688862244
H        0.3932801571    0.3529934506   -1.4365515794
H       -1.2301268911    1.4200445372    0.3641958048
H       -0.5744384162    0.1588154450    1.4125571985
O       -1.5754965372   -0.5380765796   -0.2819687135
H       -2.4688462563   -0.1387235078   -0.3503498954
