12   
Generated by ForceBalance from qchem.out: Frame 8 of 8
C        1.8921447245   -0.1294244152   -0.0540806000
C        0.5136079744    0.5105958365    0.0915429306
H        2.0755007829   -0.8622958438    0.7349348053
H        2.6814583350    0.6217048837    0.0004015697
H        1.9817209154   -0.6419650561   -1.0137294515
H        0.4392461578    1.0680954781    1.0275202166
C       -0.6059220708   -0.5125147619    0.0265513194
H        0.3495401701    1.2263681168   -0.7169035988
H       -0.6393069508   -1.1078157751    0.9432015324
H       -0.4443511993   -1.1998878505   -0.8100499045
O       -1.8598919351    0.1867114402   -0.1860930379
H       -2.5132766092   -0.2061803359    0.4318638503
