12   
Generated by ForceBalance from qchem.out: Frame 8 of 8
C        1.8203875067   -0.1854971626   -0.2324466494
C        0.5429701888    0.5299282831    0.2034854151
H        2.1258120725   -0.9328889906    0.5027865011
H        2.6463557195    0.5170337737   -0.3547762735
H        1.6712440287   -0.6979195502   -1.1849357323
H        0.7176764620    1.0896527692    1.1243625484
C       -0.6464143907   -0.4249852226    0.3806289691
H        0.2644715684    1.2677735285   -0.5526848121
H       -0.8894318941   -0.5695781969    1.4330091877
H       -0.4130010626   -1.4081621933   -0.0412587457
O       -1.8650412976    0.0840985408   -0.2137866604
H       -1.7550322407   -0.0331913676   -1.1836021315
