12   
Generated by ForceBalance from qchem.out: Frame 8 of 8
C        1.4503377563   -0.5734933066    0.0416114293
C        0.6756348710    0.7166868218   -0.2069786800
H        1.4296575107   -0.8490435693    1.0973305535
H        2.4925994667   -0.4569001937   -0.2599531077
H        1.0152080121   -1.3971616179   -0.5204491026
H        1.1413123333    1.5573705818    0.3140872166
C       -0.7902211239    0.6279830983    0.2289827743
H        0.7272337322    0.9516819928   -1.2745816398
H       -1.4113665438    1.3442515144   -0.3151484439
H       -0.8694364034    0.8637459693    1.2916154256
O       -1.3328138418   -0.7119298778    0.1269759097
H       -1.7108943915   -0.7911085477   -0.7771182224
