12   
Generated by ForceBalance from qchem.out: Frame 6 of 6
C        1.6768501712   -0.4074695833    0.1822530719
C        0.5931048760    0.4757154210   -0.4310591159
H        1.9568999183   -0.0355409367    1.1689512955
H        2.5744792898   -0.4277188182   -0.4379846791
H        1.3194746840   -1.4323202244    0.2982095536
H        0.9654981774    1.5022239793   -0.4943755646
C       -0.7069091254    0.4728804187    0.3720156100
H        0.3792012581    0.1718435119   -1.4603596350
H       -1.2083331313    1.4417779315    0.2749623704
H       -0.5166529790    0.2976490186    1.4316335245
O       -1.6327808812   -0.5630355515   -0.0416486713
H       -1.4662212950   -0.7086438840   -0.9983526661
