12   
Generated by ForceBalance from qchem.out: Frame 8 of 8
C        1.8879803610   -0.1204099988    0.0029044058
C        0.5039862625    0.5232386788    0.0478594773
H        2.0314644735   -0.7943194997    0.8495096502
H        2.6742763460    0.6347219241    0.0385786128
H        2.0198367624   -0.6997404980   -0.9129693240
H        0.3784714322    1.1000643617    0.9670402873
C       -0.6121064170   -0.5051326233   -0.0369899393
H        0.3998350095    1.2253329467   -0.7858168263
H       -0.5818329014   -1.1841449175    0.8157946895
H       -0.5020015333   -1.1030819690   -0.9491397383
O       -1.9262250320    0.0970280838    0.0049926874
H       -1.8848603516    0.8663073845   -0.6064499177
