12   
Generated by ForceBalance from qchem.out: Frame 8 of 8
C        1.8960551760   -0.1202041015    0.1072126584
C        0.5326060320    0.5128362478   -0.1613631739
H        1.9112010047   -0.5923590445    1.0910401570
H        2.6893629484    0.6283368768    0.0801038072
H        2.1360689501   -0.8852230133   -0.6347730138
H        0.3169399121    1.2494770764    0.6152852199
C       -0.6006657355   -0.5056005267   -0.1266912610
H        0.5313255523    1.0489348161   -1.1130788236
H       -0.3716561969   -1.2904173664    0.5997020797
H       -0.7365893790   -0.9872339861   -1.0981191492
O       -1.8273593349    0.1337535048    0.3171819406
H       -2.4820028260    0.0313723855   -0.4063703452
