12   
Generated by ForceBalance from qchem.out: Frame 8 of 8
C        1.5470119300   -0.5141272111    0.1113913114
C        0.6170427259    0.6223916230   -0.3035300459
H        1.7317181292   -0.4918603694    1.1875974495
H        2.5106737673   -0.4461544064   -0.3957166522
H        1.1097754931   -1.4824111998   -0.1393336059
H        1.0765759854    1.5816105509   -0.0457590975
C       -0.7471044990    0.5413989144    0.3640780929
H        0.4620449717    0.6190661769   -1.3840409625
H       -1.3050200637    1.4644882407    0.1993784499
H       -0.6499915547    0.3957166660    1.4441645103
O       -1.5654053665   -0.5005190471   -0.2266728602
H       -1.3805456052   -1.3200475450    0.2823200131
