12   
Generated by ForceBalance from qchem.out: Frame 8 of 8
C        1.6167952851   -0.4603319212   -0.1461192710
C        0.6095550304    0.5824025717    0.3331930678
H        1.2335895640   -1.4724414445    0.0020782112
H        2.5607502367   -0.3826737075    0.3958481183
H        1.8285393747   -0.3325353791   -1.2095214101
H        0.4223339208    0.4875763299    1.4040473903
C       -0.7354867531    0.4901926288   -0.3807632594
H        1.0296098396    1.5791559676    0.1693170906
H       -0.6127675604    0.1930954314   -1.4263433022
H       -1.2376461273    1.4585749882   -0.3670173307
O       -1.6498129183   -0.4007872488    0.3092398985
H       -1.5044946131   -1.2959502793   -0.0689374502
