12   
Generated by ForceBalance from qchem.out: Frame 8 of 8
C        1.6859671918   -0.4235710079   -0.1063805632
C        0.6097967255    0.5402928411    0.3853115211
H        1.3296013301   -1.4541035212   -0.0591538298
H        2.5918851368   -0.3505873509    0.4978344502
H        1.9537815552   -0.2053688714   -1.1418324778
H        0.3790473074    0.3669957837    1.4375416981
C       -0.6911517469    0.4231199099   -0.4044666475
H        0.9876480371    1.5639830877    0.3040823102
H       -0.4983756251    0.1048150701   -1.4321778253
H       -1.2015048997    1.3883892756   -0.4475005953
O       -1.5621855928   -0.5628745045    0.2167065701
H       -2.3851542756   -0.0911923241    0.4646142242
