12   
Generated by ForceBalance from qchem.out: Frame 8 of 8
C        1.4266900494   -0.5942310987    0.0151866911
C        0.6952287311    0.7370263936   -0.1334050876
H        1.3028845181   -1.0064613606    1.0169804806
H        2.4935109690   -0.4575637640   -0.1703756912
H        1.0419530013   -1.3272127076   -0.6907965219
H        1.1347917388    1.4863738221    0.5290088019
C       -0.8138418752    0.6465375434    0.1530852014
H        0.8525925330    1.1019607793   -1.1520440675
H       -1.3833622069    1.2405700908   -0.5644270478
H       -1.0283721485    1.0449088629    1.1476325722
O       -1.2795921434   -0.7297943804    0.1612826089
H       -1.9605879385   -0.8032836956   -0.5411916705
