12   
Generated by ForceBalance from qchem.out: Frame 7 of 7
C        1.4208052020   -0.5723429290   -0.0087732784
C        0.6680707030    0.7577420771    0.0217656747
H        1.2549304626   -1.1588543840    0.8980622656
H        2.4943196775   -0.3907106539   -0.0740003228
H        1.1274943948   -1.1756563381   -0.8683546352
H        0.9807024686    1.3195457212    0.9045223374
C       -0.8750153819    0.6365706414    0.0137460462
H        0.9815210767    1.3480930563   -0.8417070743
H       -1.2950518150    1.1169764676   -0.8697375320
H       -1.2883113814    1.1428711190    0.8916240806
O       -1.3961650538   -0.7139584020   -0.0214406021
H       -0.7409228239   -1.2820991218    0.4361840464
