12   
Generated by ForceBalance from qchem.out: Frame 8 of 8
C        1.8030684170   -0.2174787520    0.2143414392
C        0.5474058701    0.5678729653   -0.1580207898
H        1.6175512364   -0.8423057823    1.0896236641
H        2.6350171144    0.4500773960    0.4449773403
H        2.1157944511   -0.8697170074   -0.6036725226
H        0.2598948656    1.2124884306    0.6746425976
C       -0.6525050140   -0.3414654028   -0.4647543906
H        0.7607292776    1.2224427683   -1.0069852076
H       -0.3899202636   -1.3859965645   -0.2899819750
H       -0.9700625729   -0.2547767872   -1.5071678878
O       -1.7715765748   -0.0920747545    0.4246420523
H       -2.3172722794    0.5997445557   -0.0097462094
