12   
Generated by ForceBalance from qchem.out: Frame 12 of 12
C        1.5290979888   -0.5340656224   -0.0932189028
C        0.6407901805    0.6411735577    0.2992461027
H        1.0764347324   -1.4710002416    0.2280729680
H        2.5158534324   -0.4496546572    0.3648187507
H        1.6646389223   -0.5749425204   -1.1763886647
H        0.5331089318    0.6783728951    1.3859901077
C       -0.7435104075    0.5542883514   -0.3144404102
H        1.0959464646    1.5873777296   -0.0082731614
H       -0.6661149873    0.5499066711   -1.4064704391
H       -1.3574414257    1.4123414664   -0.0217751222
O       -1.3631298479   -0.6721219370    0.1492252037
H       -1.9736711447   -0.9641819260   -0.5626582958
