12   
Generated by ForceBalance from qchem.out: Frame 8 of 8
C        1.8897894870   -0.1207889892    0.0219397978
C        0.5030107564    0.5177338598    0.0097716696
H        2.0236567700   -0.7426759780    0.9088082638
H        2.6719488865    0.6393954821    0.0233229096
H        2.0354583295   -0.7519587934   -0.8565944501
H        0.3697856852    1.1459812234    0.8947008459
C       -0.6088032188   -0.5170511594   -0.0254419247
H        0.4044655642    1.1677103429   -0.8653261203
H       -0.5625144983   -1.1606122843    0.8557428266
H       -0.5011734619   -1.1494559733   -0.9126349278
O       -1.9298138254    0.0787257053   -0.0372373756
H       -1.8021277980    1.0256012085   -0.2636139085
