12   
Generated by ForceBalance from qchem.out: Frame 8 of 8
C        1.8570062968   -0.1532944813    0.1737345840
C        0.5344417143    0.5195245380   -0.1875972592
H        1.7945973175   -0.6192648591    1.1588554433
H        2.6730873466    0.5706839190    0.1951097736
H        2.1210971552   -0.9297203169   -0.5479425242
H        0.2821384005    1.2578042830    0.5758390031
C       -0.6226457401   -0.4695454237   -0.2467608278
H        0.6188783940    1.0580204616   -1.1335212355
H       -0.4420372165   -1.2830126424    0.4629687729
H       -0.7252880616   -0.9138816289   -1.2420014308
O       -1.8404066339    0.2301250763    0.1173506688
H       -2.4272786302   -0.4357543477    0.5378946385
