12   
Generated by ForceBalance from qchem.out: Frame 12 of 12
C        1.7634716236   -0.1546858065   -0.3251371690
C        0.5668846932    0.5144251588    0.3475323627
H        2.0941505904   -1.0201411172    0.2515601444
H        2.6071268830    0.5319246912   -0.4135851531
H        1.4981781186   -0.4983138070   -1.3265066281
H        0.8573654915    0.8431423812    1.3488593188
C       -0.6582163750   -0.4057036092    0.4443302611
H        0.2885065530    1.4170217143   -0.2029469206
H       -1.0782192753   -0.3779522653    1.4554716158
H       -0.3952310103   -1.4400445074    0.2221753967
O       -1.6989143908   -0.0760224262   -0.5075003438
H       -1.7918142209    0.9016092146   -0.4711699539
