12   
Generated by ForceBalance from qchem.out: Frame 12 of 12
C        1.4096501021   -0.6010949210    0.0565296930
C        0.7038658559    0.7498819178   -0.0205530610
H        1.1466941939   -1.1368277995    0.9690950460
H        2.4915668722   -0.4568881952    0.0458241133
H        1.1330421627   -1.2308962167   -0.7864006397
H        1.0348815974    1.3931343604    0.7983090221
C       -0.8320551332    0.6536046732    0.0070447097
H        1.0152643073    1.2481213967   -0.9417273713
H       -1.2779774215    1.3136265666   -0.7415467972
H       -1.2048295128    0.9700235722    0.9842609469
O       -1.2703243862   -0.7067384048   -0.2512832070
H       -1.9681042042   -0.9036622123    0.4093428084
