12   
Generated by ForceBalance from qchem.out: Frame 8 of 8
C        1.8300442968   -0.1445879237   -0.2385502809
C        0.5516532318    0.4934474206    0.3000884170
H        2.1174210039   -1.0193248974    0.3491117132
H        2.6627091336    0.5603363155   -0.2134605845
H        1.6910576527   -0.4660395272   -1.2722641545
H        0.7134218065    0.8805119692    1.3079391524
C       -0.6391646129   -0.4620058654    0.2817588551
H        0.2799038146    1.3459533074   -0.3252543332
H       -0.8637066278   -0.8459666407    1.2821363833
H       -0.4277297122   -1.3211014580   -0.3645558764
O       -1.7722345972    0.2715965127   -0.2459823729
H       -2.5286968694   -0.3579320891   -0.2506115928
