12   
Generated by ForceBalance from qchem.out: Frame 7 of 7
C        1.7928701590   -0.2068085026    0.2342207823
C        0.5422673573    0.5622990499   -0.1869895784
H        1.5966273347   -0.7901345992    1.1353304327
H        2.6243607992    0.4688739021    0.4415618119
H        2.1104085442   -0.8964112156   -0.5503512546
H        0.2567259726    1.2479735356    0.6140631697
C       -0.6559144021   -0.3581809353   -0.4681587144
H        0.7652023812    1.1753774883   -1.0638492700
H       -0.4076121782   -1.3969947037   -0.2497804468
H       -0.9577526953   -0.3039050629   -1.5190975171
O       -1.7926325564   -0.0834804470    0.3859035549
H       -2.0406073572    0.8507946699    0.2036345210
