12   
Generated by ForceBalance from qchem.out: Frame 7 of 7
C        1.7265952520   -0.3838705694   -0.0198629028
C        0.5594917632    0.5445264684    0.3087749426
H        1.4326822131   -1.4279051854    0.1020067613
H        2.5829744694   -0.1937706449    0.6293514733
H        2.0502799406   -0.2432540118   -1.0525112712
H        0.2887623127    0.4425336823    1.3630292826
C       -0.6826444713    0.2735003499   -0.5516539354
H        0.8788611083    1.5811963573    0.1729411409
H       -0.4469978375   -0.3765700770   -1.3944057971
H       -1.0800953378    1.2112259712   -0.9545442601
O       -1.7364496667   -0.4154005144    0.1644181566
H       -1.8074928726    0.0384442757    1.0331468683
