12   
Generated by ForceBalance from qchem.out: Frame 9 of 9
C        1.4509286909   -0.5556491210   -0.0628361075
C        0.6552879478    0.7189274137    0.2111870643
H        1.0802862977   -1.3955311920    0.5233010044
H        2.5011566298   -0.4095162469    0.1943639241
H        1.3925587120   -0.8390456228   -1.1148220040
H        0.7192756568    0.9445525130    1.2801758449
C       -0.8185412562    0.6274102206   -0.1993722152
H        1.1070652293    1.5685332751   -0.3065624703
H       -0.9343866341    0.8880310039   -1.2520319486
H       -1.4215667472    1.3279564038    0.3875458249
O       -1.3757793724   -0.7048242010   -0.1161900014
H       -1.0764558248   -1.0747258319    0.7445485076
