12   
Generated by ForceBalance from qchem.out: Frame 9 of 9
C        1.7080771683   -0.3756799698   -0.1893661486
C        0.5781973505    0.4382151712    0.4378894987
H        1.3932522829   -1.4077364409   -0.3540236990
H        2.5931058281   -0.3879796014    0.4490214789
H        1.9951173489    0.0464214510   -1.1537776735
H        0.3597685734    0.0615464000    1.4413143642
C       -0.7089548592    0.4239711339   -0.3982059384
H        0.9134204136    1.4701510545    0.5699760053
H       -0.5217939726    0.0420751688   -1.4026220233
H       -1.1069162950    1.4393418659   -0.4960009195
O       -1.7503524475   -0.4225696358    0.1497070990
H       -1.6213904673   -0.4180973149    1.1228040822
