12   
Generated by ForceBalance from qchem.out: Frame 12 of 12
C        1.4134071893   -0.5960734768    0.0558140172
C        0.6984097301    0.7500660703   -0.0266034295
H        1.1593990981   -1.1269208671    0.9735245320
H        2.4940774536   -0.4436037199    0.0367445246
H        1.1366411618   -1.2335069029   -0.7813374001
H        1.0297333655    1.4011244311    0.7857345113
C       -0.8351375699    0.6468456795    0.0113688813
H        1.0018164324    1.2433264394   -0.9531682048
H       -1.2916256238    1.3073084794   -0.7317210665
H       -1.2013225148    0.9561062117    0.9943065792
O       -1.2472856241   -0.7221173982   -0.2358990417
H       -2.0900359587   -0.8450610280    0.2529838910
