12   
Generated by ForceBalance from qchem.out: Frame 8 of 8
C        1.8815073216   -0.1432847276   -0.0972110196
C        0.5215908093    0.5225669698    0.1000724894
H        2.1023593041   -0.8445336347    0.7106372680
H        2.6812796619    0.5983833756   -0.1211375650
H        1.9090993025   -0.6968889913   -1.0377811149
H        0.5126127138    1.1272757986    1.0091663302
C       -0.6090177213   -0.4890903348    0.1539185939
H        0.3157637849    1.1977750280   -0.7327811586
H       -0.6110088356   -1.0343163744    1.1036592210
H       -0.4819304696   -1.2204059810   -0.6506418071
O       -1.8599924198    0.2235142763   -0.0172642096
H       -2.4785121078   -0.4016627721   -0.4544511320
