12   
Generated by ForceBalance from qchem.out: Frame 8 of 8
C        1.4534186017   -0.5780665889    0.0679826258
C        0.6903981557    0.7220889340   -0.1685353918
H        1.3616099856   -0.9099775520    1.1037210081
H        2.5135155116   -0.4398373338   -0.1511480605
H        1.0635679004   -1.3681891823   -0.5695733595
H        1.1162550976    1.5368099755    0.4228545991
C       -0.8001786803    0.6135685161    0.1535328647
H        0.8108348765    1.0039470237   -1.2181299438
H       -1.3760431788    1.3289864278   -0.4381269975
H       -0.9728509341    0.8430717405    1.2096330723
O       -1.2643794555   -0.7429771042   -0.0777922265
H       -2.1142526523   -0.6705943711   -0.5634819208
