12   
Generated by ForceBalance from qchem.out: Frame 8 of 8
C        1.4626586987   -0.5560575750   -0.1168557596
C        0.6638403684    0.7021992321    0.2077194361
H        1.0556285482   -1.4101072707    0.4209213677
H        2.5098860919   -0.4317377044    0.1634634386
H        1.4233372179   -0.7809830710   -1.1847398503
H        0.7175797719    0.8918780542    1.2829542952
C       -0.7973658848    0.5841913358   -0.1972256295
H        1.0934124814    1.5755922272   -0.2915405447
H       -0.8949278475    0.6523833834   -1.2856246369
H       -1.3850216876    1.3940673958    0.2423136117
O       -1.3072377136   -0.7104449094    0.2191790784
H       -2.1840111356   -0.5489753970    0.6297307186
