12   
Generated by ForceBalance from qchem.out: Frame 8 of 8
C        1.9024601824   -0.1358180731    0.0486686481
C        0.5263706039    0.5223170567   -0.0237042606
H        2.0030734788   -0.7363610331    0.9551486849
H        2.6967033780    0.6119766813    0.0534411985
H        2.0677850116   -0.7931817424   -0.8074951080
H        0.3737486731    1.1707647841    0.8426735010
C       -0.5956049042   -0.5011017047   -0.0680526632
H        0.4484704987    1.1555074373   -0.9096587852
H       -0.5447124438   -1.1671707061    0.7979161315
H       -0.5102435975   -1.1192975915   -0.9646118955
O       -1.8873366751    0.1560828299   -0.1363579666
H       -2.2892503544    0.0737232641    0.7548613496
