12   
Generated by ForceBalance from qchem.out: Frame 12 of 12
C        1.5093593685   -0.4937658099   -0.1776809781
C        0.6237995368    0.6759973160    0.2504678148
H        1.1889575003   -1.4403894405    0.2616807429
H        2.5415621120   -0.3309757633    0.1357418553
H        1.4989983096   -0.6116534139   -1.2630497401
H        0.6215456391    0.7608854644    1.3409374108
C       -0.8126643572    0.5636152744   -0.2381748698
H        1.0420928179    1.6092589808   -0.1361677937
H       -0.8281788859    0.5528376240   -1.3332246614
H       -1.3988496387    1.4202143553    0.1005927042
O       -1.4984537525   -0.6193974356    0.2385515145
H       -0.8096235192   -1.2250250229    0.5852630910
