12   
Generated by ForceBalance from qchem.out: Frame 8 of 8
C        1.8798226133   -0.1329514116   -0.1243722208
C        0.5200192655    0.4959669258    0.1714069175
H        2.0976936950   -0.9446128588    0.5726384549
H        2.6802705806    0.6032471511   -0.0400889489
H        1.9029278913   -0.5437560477   -1.1350767444
H        0.5130158797    0.9723883337    1.1543181119
C       -0.6143291051   -0.5153119416    0.0808724792
H        0.3341135700    1.2859837229   -0.5642199369
H       -0.6345199029   -1.1678840256    0.9547623999
H       -0.4706399038   -1.1434390068   -0.8057791471
O       -1.9212720371    0.1026834110    0.0130542653
H       -1.7880004145    0.9670232486   -0.4343476812
