12   
Generated by ForceBalance from qchem.out: Frame 7 of 7
C       -1.7139004324   -0.3568713919    0.1777351856
C       -0.5830227967    0.4241301129   -0.4894352483
H       -1.4112459403   -1.3826515778    0.4011148492
H       -2.5968150764   -0.4026557104   -0.4620223883
H       -2.0040160055    0.1151372653    1.1178652055
H       -0.3322499384    0.0000012261   -1.4644570771
C        0.6960428494    0.4737795035    0.3545227038
H       -0.9298409495    1.4423834572   -0.6836931145
H        0.4743133884    0.2343834428    1.4003685624
H        1.1505770248    1.4639262525    0.3281129036
O        1.7367260781   -0.4024324985   -0.1437257284
H        1.2922099150   -1.2554026833   -0.3497655963
