12   
Generated by ForceBalance from qchem.out: Frame 8 of 8
C        1.4120924091   -0.5958398671    0.0913154280
C        0.7001006186    0.7416151576   -0.0843814916
H        1.2286119032   -1.0190054787    1.0812203221
H        2.4900180491   -0.4704185123   -0.0238682606
H        1.0607477657   -1.3122435819   -0.6477500233
H        1.0879721943    1.4848356017    0.6171956909
C       -0.8205056453    0.6491644691    0.0870937730
H        0.9229651285    1.1185224849   -1.0857506360
H       -1.3273199235    1.4053704872   -0.5165216689
H       -1.0852650301    0.8317155223    1.1317619733
O       -1.3202903418   -0.6549669758   -0.3114867879
H       -1.7513655032   -1.0425918175    0.4790230933
