12   
Generated by ForceBalance from qchem.out: Frame 7 of 7
C        1.8344329411   -0.1433642449    0.2044144273
C        0.5248985284    0.5207059361   -0.2174184796
H        1.7250810678   -0.6101040145    1.1844448307
H        2.6461948561    0.5834178528    0.2626966491
H        2.1310337204   -0.9181408361   -0.5056317708
H        0.2564386501    1.2665496677    0.5351719891
C       -0.6365755607   -0.4745470784   -0.3172615486
H        0.6554378373    1.0531866678   -1.1626868179
H       -0.4097516233   -1.3866907178    0.2357590583
H       -0.8242264759   -0.7546750456   -1.3591887938
O       -1.8558747351    0.0124457114    0.2939189571
H       -1.9535578767    0.9431934613   -0.0083724262
