12   
Generated by ForceBalance from qchem.out: Frame 8 of 8
C        1.4478424068   -0.5604652154   -0.1251212572
C        0.6663386596    0.7122545686    0.1850397114
H        1.0572623103   -1.3958037568    0.4522685793
H        2.5040711951   -0.4306276142    0.1166370467
H        1.3732383903   -0.8190862668   -1.1834908486
H        0.7510390611    0.9313845461    1.2524133059
C       -0.8057797967    0.6035135740   -0.1758415907
H        1.0884360613    1.5687256722   -0.3479780059
H       -0.9290265085    0.6596749753   -1.2635845974
H       -1.3764738793    1.4235996335    0.2721071678
O       -1.2888254077   -0.6760540123    0.2985065017
H       -2.2399384739   -0.7158130155    0.0508135962
