12   
Generated by ForceBalance from qchem.out: Frame 8 of 8
C        1.9004784267   -0.1346446401   -0.0450504976
C        0.5314721145    0.5393519682    0.0183104573
H        2.0773544618   -0.7570250673    0.8348041685
H        2.7012288178    0.6043403354   -0.0970377825
H        1.9744741529   -0.7733607863   -0.9270150001
H        0.4807798235    1.2189929319    0.8737803674
C       -0.6039026552   -0.4707405924    0.0969238945
H        0.3716953686    1.1431004512   -0.8775377465
H       -0.6169525522   -0.9774196749    1.0674980067
H       -0.4787599647   -1.2324740118   -0.6738565962
O       -1.8896741143    0.1280363294   -0.1903203959
H       -2.1296240437    0.6479017288    0.6093436409
