12   
Generated by ForceBalance from qchem.out: Frame 7 of 7
C        1.4538278300   -0.5630054838   -0.0374995145
C        0.6857424582    0.7465024561    0.1168743718
H        1.0826218180   -1.3043723211    0.6674553130
H        2.5175434448   -0.4070902487    0.1481610236
H        1.3522839668   -0.9723050034   -1.0456644049
H        0.8378198520    1.1118945006    1.1352609779
C       -0.8206220036    0.6003461463   -0.1416861335
H        1.0884030855    1.5124181640   -0.5511551389
H       -1.0476352967    0.8136841153   -1.1902921860
H       -1.3886618369    1.3043259717    0.4666798248
O       -1.3275815616   -0.7144879636    0.1986396845
H       -1.2426663881   -1.2560418094   -0.6157549996
