12   
Generated by ForceBalance from qchem.out: Frame 12 of 12
C        1.6897072229   -0.4086302639    0.1115132842
C        0.5824406446    0.4920636914   -0.4300410063
H        2.0096382104   -0.0666444810    1.0969095044
H        2.5615603028   -0.4091697220   -0.5448119857
H        1.3370340487   -1.4368889201    0.2104573168
H        0.9518763509    1.5206715535   -0.4739856235
C       -0.6850626692    0.4614801922    0.4228457799
H        0.3286106202    0.2220384320   -1.4596901639
H       -1.1902343327    1.4321905031    0.3767850876
H       -0.4530453748    0.2527068212    1.4679513529
O       -1.6261920247   -0.5619247191    0.0128555766
H       -1.4972418502   -0.6764883364   -0.9538258254
