12   
Generated by ForceBalance from qchem.out: Frame 12 of 12
C        1.7583784420   -0.1203889096   -0.3452417551
C        0.5665272892    0.4716102365    0.4040105480
H        2.0870262445   -1.0468134475    0.1284787127
H        2.6042790328    0.5690300154   -0.3573178786
H        1.4898482898   -0.3476232760   -1.3784828162
H        0.8618678740    0.6794874710    1.4356957362
C       -0.6627517943   -0.4476782397    0.4018624347
H        0.2947789587    1.4373863951   -0.0317208718
H       -1.0824193886   -0.5194818515    1.4106092643
H       -0.3997506186   -1.4556524400    0.0785123106
O       -1.7124240117   -0.0151973275   -0.4995632708
H       -1.6471074872    0.9632103402   -0.5444171817
