12   
Generated by ForceBalance from qchem.out: Frame 7 of 7
C        1.4731506713   -0.5597123463    0.1132089231
C        0.6620922711    0.6914359372   -0.2087907529
H        1.4581573249   -0.7723856560    1.1842382209
H        2.5134204567   -0.4313499240   -0.1906112265
H        1.0616235792   -1.4229759743   -0.4056020457
H        1.1052913626    1.5743950661    0.2600854764
C       -0.7856319563    0.5880991611    0.2412612111
H        0.6834366980    0.8625637507   -1.2879840596
H       -1.3893916451    1.3821988712   -0.2101833010
H       -0.8472075800    0.6934588959    1.3305542523
O       -1.2817227162   -0.7156452727   -0.1457497126
H       -2.2165780241   -0.7513897266    0.1580892504
