12   
Generated by ForceBalance from qchem.out: Frame 12 of 12
C        1.8135447585   -0.1871565985   -0.2409515373
C        0.5516269493    0.5050982596    0.2687255400
H        2.0955716198   -1.0250325268    0.4005437027
H        2.6566740037    0.5049507655   -0.2727944474
H        1.6568474501   -0.5746414390   -1.2491754352
H        0.7312806185    0.9535475445    1.2477088703
C       -0.6543109094   -0.4297004727    0.3249143640
H        0.2861623434    1.3201090386   -0.4072588754
H       -0.8731581437   -0.7444006644    1.3504217076
H       -0.4642221806   -1.3321859532   -0.2665754119
O       -1.7817313106    0.2869182831   -0.2371712114
H       -2.5480788958   -0.3289796334   -0.1930198930
