12   
Generated by ForceBalance from qchem.out: Frame 8 of 8
C        1.5903873721   -0.4735181718   -0.1028225129
C        0.5963276173    0.5909316884    0.3493383608
H        1.1593064289   -1.4685879200    0.0152202237
H        2.5139469815   -0.4287900587    0.4766810268
H        1.8457318230   -0.3371389264   -1.1552986235
H        0.3928490512    0.5010505040    1.4192899901
C       -0.7234352165    0.5023535933   -0.4047218463
H        1.0278386998    1.5847939287    0.1923444364
H       -0.5490064938    0.3242651923   -1.4670566154
H       -1.2930298484    1.4314187457   -0.3105553981
O       -1.5208480370   -0.6181852017    0.0583461740
H       -2.0750058797   -0.2692261198    0.7902655458
