12   
Generated by ForceBalance from qchem.out: Frame 8 of 8
C        1.8502349999   -0.1085121590   -0.2063989261
C        0.5311496905    0.5014721642    0.2645343463
H        2.1330126132   -0.9614814663    0.4136933362
H        2.6614054562    0.6198376997   -0.1614102107
H        1.7618325764   -0.4569448615   -1.2364198134
H        0.6416557644    0.9307655921    1.2627607398
C       -0.6257755021   -0.5046548653    0.2368568699
H        0.2843354816    1.3297576385   -0.4066882854
H       -0.8421539940   -0.8721812710    1.2442087806
H       -0.3622465877   -1.3658710926   -0.3810146830
O       -1.8495090105    0.0240215403   -0.3350842373
H       -1.7451909296    0.9990121842   -0.3651440479
