12   
Generated by ForceBalance from qchem.out: Frame 8 of 8
C        1.5204141075   -0.5165524344    0.1068701968
C        0.6205635110    0.6427072466   -0.3065983536
H        1.6889300031   -0.5092190952    1.1856491507
H        2.4918944157   -0.4575739664   -0.3864398628
H        1.0548787680   -1.4660335466   -0.1560212881
H        1.0792838636    1.5969888205   -0.0285840926
C       -0.7520544769    0.5571577605    0.3400986337
H        0.4974068434    0.6536129465   -1.3928081731
H       -1.3644772929    1.4239078556    0.0783352472
H       -0.6564404347    0.5322515435    1.4281755828
O       -1.4214204958   -0.6745806687   -0.0405605470
H       -2.1070353561   -0.4261381765   -0.6973531207
