12   
Generated by ForceBalance from qchem.out: Frame 8 of 8
C        1.9012799512   -0.1235511458    0.0246790325
C        0.5178605064    0.5214185514   -0.0247471422
H        1.9957787452   -0.7639813724    0.9033082367
H        2.6863990723    0.6322221113    0.0730168588
H        2.0833265886   -0.7382249433   -0.8593969509
H        0.3591682566    1.1281495327    0.8696382751
C       -0.5984708893   -0.5107246478   -0.0856657679
H        0.4431594999    1.1936282041   -0.8847658061
H       -0.4531718554   -1.2712643122    0.6822690492
H       -0.6119246689   -1.0140283993   -1.0587480365
O       -1.8937862507    0.0587574432    0.2139283922
H       -2.0418169924    0.7548709336   -0.4656874896
