12   
Generated by ForceBalance from qchem.out: Frame 8 of 8
C        1.9019260913   -0.1332712285   -0.0517973488
C        0.5252429359    0.5207980396    0.0440281401
H        2.0666071636   -0.8213294852    0.7799379927
H        2.6958234874    0.6145128016   -0.0286904775
H        2.0031418724   -0.7003680842   -0.9794333850
H        0.4452304619    1.1202327740    0.9529078329
C       -0.5967800985   -0.5048532313    0.0476263887
H        0.3768220356    1.2022728290   -0.7981226935
H       -0.5196820703   -1.1475257521    0.9263459577
H       -0.5399514481   -1.1458763019   -0.8375410199
O       -1.8966337203    0.1285089695    0.1388577965
H       -2.1852748686    0.2926362270   -0.7854697250
