12   
Generated by ForceBalance from qchem.out: Frame 7 of 7
C       -1.7255868119   -0.3462342480    0.1964678926
C       -0.5677090172    0.3848688239   -0.4799230245
H       -1.4402310765   -1.3629631620    0.4747062821
H       -2.5946234794   -0.4082174791   -0.4607119661
H       -2.0280892939    0.1752054328    1.1058595835
H       -0.3137793679   -0.0877066146   -1.4330233566
C        0.6920485249    0.4567907331    0.3917922532
H       -0.8912332126    1.3978569412   -0.7328761540
H        0.4419391092    0.2420603636    1.4353011072
H        1.1370964067    1.4526609362    0.3537488358
O        1.7424656718   -0.4535414420   -0.0259319496
H        1.3264806634   -1.0970528869   -0.6387892463
