12   
Generated by ForceBalance from qchem.out: Frame 9 of 9
C        1.4469847865   -0.5787905286   -0.0705273403
C        0.7018292533    0.7417374993    0.1034474652
H        1.1409799957   -1.3023775923    0.6830796153
H        2.5225146889   -0.4192431629    0.0239246568
H        1.2486730953   -1.0202918360   -1.0473244036
H        0.9230152786    1.1337729502    1.1003235737
C       -0.8225453379    0.6137489895   -0.0775384589
H        1.0789683243    1.4838679914   -0.6039334527
H       -1.1047928775    0.9568895351   -1.0735642833
H       -1.3618996018    1.2307641131    0.6453133698
O       -1.2985327581   -0.7547611206   -0.0343569385
H       -1.5066233489   -0.9477462000    0.9067072522
