12   
Generated by ForceBalance from qchem.out: Frame 8 of 8
C        1.8728960781   -0.1245070782    0.1797948709
C        0.5463635705    0.5167805064   -0.2220725276
H        1.8011457800   -0.5520961723    1.1812040887
H        2.6812011739    0.6085215993    0.1821051355
H        2.1532361218   -0.9259606600   -0.5073551543
H        0.2841950219    1.2863308795    0.5064352738
C       -0.6119159510   -0.4852335563   -0.2382304752
H        0.6409028703    1.0164242864   -1.1891895246
H       -0.3452818527   -1.3672556503    0.3483761596
H       -0.8426488937   -0.8250709251   -1.2507064588
O       -1.7935657540    0.0614870132    0.4056929639
H       -2.4226455842    0.2964281670   -0.3101804818
