12   
Generated by ForceBalance from qchem.out: Frame 9 of 9
C        1.4357738680   -0.5996456258    0.0116112138
C        0.7140801589    0.7448436682   -0.0277631815
H        1.1724533470   -1.1617811989    0.9063652268
H        2.5158724452   -0.4422595706    0.0053677621
H        1.1736201755   -1.2126673520   -0.8496835332
H        1.0439713437    1.3544011674    0.8163666602
C       -0.8245154452    0.6287058364    0.0056711448
H        1.0187951478    1.2850041611   -0.9276633236
H       -1.2658490333    1.1191576769   -0.8642075318
H       -1.2234023145    1.1243185629    0.8932563081
O       -1.2644153799   -0.7549555217    0.0683774103
H       -1.8125639835   -0.9128543726   -0.7294635246
