12   
Generated by ForceBalance from qchem.out: Frame 7 of 7
C        1.8795879056   -0.1355358007   -0.0797200526
C        0.5092858136    0.5258007174    0.0504387135
H        2.0777833440   -0.8023206074    0.7620667232
H        2.6753914164    0.6098792721   -0.1098327590
H        1.9353216801   -0.7259741467   -0.9957106720
H        0.4805434617    1.1704019920    0.9341324733
C       -0.6183935919   -0.4924901069    0.1277768491
H        0.3245115852    1.1628826060   -0.8180350552
H       -0.5980823662   -1.0156621738    1.0904725278
H       -0.5153906535   -1.2378450778   -0.6617665113
O       -1.9184119818    0.1011404244   -0.0964952084
H       -1.9298227119    0.9262534767    0.4391185933
