12   
Generated by ForceBalance from qchem.out: Frame 8 of 8
C        1.8410167348   -0.2019660768    0.2072162713
C        0.5674944563    0.5549417344   -0.1647936045
H        1.7022231818   -0.7542769754    1.1385512924
H        2.6809169375    0.4813893076    0.3434030315
H        2.1188182406   -0.9185420819   -0.5689480434
H        0.3060850246    1.2477895754    0.6366990537
C       -0.6349142446   -0.3711499936   -0.3630322575
H        0.7349932745    1.1571724387   -1.0600250974
H       -0.4149436295   -1.3587610379    0.0517433471
H       -0.8712495746   -0.5054769799   -1.4222760808
O       -1.7932735662    0.1922779280    0.3110987515
H       -2.2218268831   -0.5453167509    0.7957735742
