12   
Generated by ForceBalance from qchem.out: Frame 12 of 12
C        1.7534037589   -0.3613621357    0.1268814489
C        0.5749689522    0.4571249406   -0.3956462735
H        2.0480124545   -0.0336825904    1.1260173681
H        2.6228620377   -0.2643187119   -0.5256461265
H        1.4919270824   -1.4198192551    0.1834103316
H        0.8677535676    1.5061679893   -0.4783057288
C       -0.6765779962    0.3260810611    0.4761532376
H        0.3021062956    0.1253778739   -1.3985820481
H       -0.9907839876    1.2935772061    0.8797835748
H       -0.4825258949   -0.3379324215    1.3236819265
O       -1.7444981736   -0.2196569212   -0.3436331388
H       -2.3251215053   -0.7338170071    0.2597201930
