12   
Generated by ForceBalance from qchem.out: Frame 9 of 9
C        1.5851543593   -0.4866754661    0.1029443137
C        0.6330039071    0.6313373388   -0.3098787590
H        1.7549297045   -0.4738208500    1.1818113865
H        2.5536636759   -0.3886711154   -0.3898587120
H        1.1701939553   -1.4595199986   -0.1659091450
H        1.0633591685    1.6005170109   -0.0391155622
C       -0.7345305595    0.5051497851    0.3408508455
H        0.4886226736    0.6338705574   -1.3919102494
H       -1.3120088529    1.4202671293    0.1939022170
H       -0.6439943963    0.3356757368    1.4173103339
O       -1.5004143538   -0.5567681310   -0.2890400854
H       -1.4970045719   -1.3151610188    0.3338405714
