12   
Generated by ForceBalance from qchem.out: Frame 8 of 8
C        1.8844341405   -0.1422474837   -0.0649415288
C        0.5219268806    0.5334470751    0.0734437360
H        2.0722246392   -0.8313402048    0.7614975718
H        2.6896291025    0.5937424379   -0.0737332225
H        1.9400170843   -0.7121935405   -0.9942823953
H        0.4860154889    1.1484261556    0.9760941946
C       -0.6183933998   -0.4720478125    0.0939687776
H        0.3503813176    1.2023750088   -0.7723455075
H       -0.6277677606   -1.0429516395    1.0264258241
H       -0.4984550139   -1.1835446860   -0.7264373515
O       -1.8915905026    0.1879103732   -0.1276016971
H       -2.3449103441    0.2245590018    0.7420380177
