12   
Generated by ForceBalance from qchem.out: Frame 9 of 9
C        1.4202937909   -0.5944105115    0.0113998952
C        0.6937273725    0.7487251213    0.0425265102
H        1.1212919332   -1.2232540571    0.8485116114
H        2.4979739803   -0.4311504987    0.0686972657
H        1.2019374295   -1.1394535613   -0.9057109523
H        0.9565887064    1.2731549212    0.9639812311
C       -0.8385687082    0.6402598921   -0.0564742142
H        1.0617153737    1.3718238786   -0.7756378263
H       -1.2101189995    1.1805782181   -0.9328037674
H       -1.3087874116    1.0836750998    0.8260390954
O       -1.2190612168   -0.7552615787   -0.1576722207
H       -2.1842743289   -0.7828455104    0.0280242499
