12   
Generated by ForceBalance from qchem.out: Frame 8 of 8
C        1.8584320890   -0.1260541696    0.2048560078
C        0.5429272424    0.4974324119   -0.2556729449
H        1.7726194567   -0.4841717386    1.2322146325
H        2.6727523185    0.5994006346    0.1669212672
H        2.1396952050   -0.9741107249   -0.4234924241
H        0.2766437218    1.3171189589    0.4144480472
C       -0.6222398869   -0.4889407270   -0.2265673426
H        0.6509286029    0.9289621022   -1.2526142117
H       -0.3669658885   -1.3682683888    0.3753313435
H       -0.8749687521   -0.8375080593   -1.2325771629
O       -1.7524481385    0.1914692129    0.3751506787
H       -2.5453944479   -0.3530095375    0.1688438667
