12   
Generated by ForceBalance from qchem.out: Frame 7 of 7
C        1.8215041368   -0.1437681405   -0.2520758597
C        0.5387814495    0.4871397036    0.2863028504
H        2.1243522341   -1.0005785670    0.3532215891
H        2.6454995566    0.5715592932   -0.2516590196
H        1.6798272149   -0.4939631890   -1.2763341521
H        0.7043756537    0.8911459730    1.2869669115
C       -0.6470457930   -0.4884602035    0.2945808222
H        0.2677721754    1.3402479878   -0.3413098113
H       -0.8973440003   -0.8118805938    1.3043800873
H       -0.4015648368   -1.3832976326   -0.2883778649
O       -1.8675219258    0.0981898088   -0.2151475674
H       -1.6633494812    0.3667923449   -1.1388611197
