12   
Generated by ForceBalance from qchem.out: Frame 8 of 8
C        1.8540524326   -0.1323249004   -0.2081975986
C        0.5406511980    0.4625600974    0.2959877814
H        2.1227094873   -1.0309286997    0.3511815424
H        2.6746633879    0.5795027783   -0.1072840207
H        1.7731461745   -0.4073762667   -1.2613460517
H        0.6343873252    0.7999577903    1.3299199135
C       -0.6318855639   -0.5107146555    0.1633963615
H        0.3091139376    1.3526601559   -0.2965169311
H       -0.7670884572   -1.1040942717    1.0673237897
H       -0.4468596845   -1.2040013070   -0.6651646942
O       -1.8978025702    0.1576436633   -0.0414687401
H       -1.7913578958    0.6691978672   -0.8744105192
