12   
Generated by ForceBalance from qchem.out: Frame 8 of 8
C        1.8370302048   -0.1421464460    0.2464625661
C        0.5689192502    0.5027048644   -0.3103437995
H        1.6931493545   -0.4444374706    1.2856897593
H        2.6813752994    0.5482818701    0.2115465812
H        2.1121769705   -1.0319246044   -0.3238888873
H        0.3144369314    1.3814516107    0.2859799529
C       -0.6435165168   -0.4383197873   -0.2799637742
H        0.7423071478    0.8605128162   -1.3270736413
H       -0.4290348905   -1.3218163515    0.3287088735
H       -0.8992945955   -0.7867361502   -1.2809574879
O       -1.8368871924    0.2212406672    0.2156702904
H       -1.8361073998    0.0853543260    1.1882402973
