12   
Generated by ForceBalance from qchem.out: Frame 6 of 6
C        1.8235580423   -0.1051557772    0.2603512146
C        0.5496258242    0.4575178642   -0.3666290095
H        1.6770924888   -0.2964163087    1.3247813436
H        2.6580513681    0.5894801007    0.1522918513
H        2.1103939447   -1.0469212374   -0.2115273050
H        0.3014866704    1.3996450904    0.1319276665
C       -0.6445761443   -0.4981142395   -0.2339432745
H        0.7210122060    0.7115213355   -1.4147911822
H       -0.4039817782   -1.2839066297    0.4909597288
H       -0.8793340291   -0.9833997618   -1.1817021690
O       -1.8703468100    0.1500509292    0.1839130656
H       -1.5995502911    0.9117939510    0.7408993892
