12   
Generated by ForceBalance from qchem.out: Frame 12 of 12
C        1.5599377305   -0.4616617715    0.2056598590
C        0.6074080999    0.6067090593   -0.3274922970
H        1.7192241610   -0.3287791174    1.2769169787
H        2.5303710938   -0.4113771639   -0.2905102039
H        1.1574740371   -1.4650840841    0.0538174743
H        1.0272693680    1.5961706201   -0.1254065512
C       -0.7776356343    0.5297408512    0.2966293564
H        0.5046259641    0.5342663533   -1.4144881689
H       -1.3367765695    1.4465554702    0.0920177536
H       -0.7025645236    0.4116736019    1.3809594950
O       -1.5680071373   -0.5733359444   -0.2178563095
H       -1.0069443510   -1.0361577264   -0.8767545218
