12   
Generated by ForceBalance from qchem.out: Frame 8 of 8
C        1.5204392495   -0.5165140921   -0.1071213222
C        0.6207264927    0.6431124095    0.3056183264
H        1.0585456910   -1.4655861352    0.1635234971
H        2.4947904301   -0.4528531182    0.3799057485
H        1.6823247916   -0.5146149669   -1.1869445162
H        0.4982421594    0.6548452883    1.3919062991
C       -0.7522906822    0.5566855295   -0.3400450766
H        1.0791580768    1.5972207602    0.0265561132
H       -0.6573702531    0.5303200099   -1.4281538757
H       -1.3645782771    1.4237554254   -0.0790359833
O       -1.4212111624   -0.6747046733    0.0425058116
H       -2.1064197555   -0.4256413437    0.6994934511
