12   
Generated by ForceBalance from qchem.out: Frame 7 of 7
C        1.4197966240   -0.5868179796    0.0799856394
C        0.6832108751    0.7317190628   -0.1351354029
H        1.2661816379   -0.9689753231    1.0908033808
H        2.4919713778   -0.4479974842   -0.0697861363
H        1.0631951021   -1.3411359522   -0.6174694527
H        1.0906693837    1.5164771639    0.5072323491
C       -0.8236832705    0.6365334857    0.1095615495
H        0.8572604754    1.0563769003   -1.1643429940
H       -1.3676747561    1.3727534924   -0.4899835781
H       -1.0335744040    0.8459307129    1.1630089699
O       -1.2844706754   -0.7018125423   -0.2047809173
H       -2.0523862265   -0.8718806895    0.3830536275
