12   
Generated by ForceBalance from qchem.out: Frame 12 of 12
C        1.8336275541   -0.1376559126   -0.2503846972
C        0.5620395952    0.5182604206    0.2832773087
H        2.1465036813   -0.9672017302    0.3871331177
H        2.6581463747    0.5757706217   -0.2971209784
H        1.6687532460   -0.5305132263   -1.2551227394
H        0.7549167763    0.9478241384    1.2695143701
C       -0.6281706345   -0.4506379432    0.3396390767
H        0.2723306711    1.3428799255   -0.3701340181
H       -0.9653482484   -0.6163211024    1.3654529949
H       -0.3438437291   -1.4222976964   -0.0697775412
O       -1.7307357117    0.0137011444   -0.4853110419
H       -2.4114171437    0.3641982464    0.1285124792
