12   
Generated by ForceBalance from qchem.out: Frame 8 of 8
C        1.4501364602   -0.5730762224   -0.0419622377
C        0.6753154751    0.7169968392    0.2069472792
H        1.0199255540   -1.3952468186    0.5260706837
H        2.4941839872   -0.4539859868    0.2523856958
H        1.4228488836   -0.8527050361   -1.0964468275
H        0.7271161292    0.9518558901    1.2745922344
C       -0.7906012074    0.6276765396   -0.2284322811
H        1.1407448429    1.5578842577   -0.3139911751
H       -0.8701872724    0.8633107837   -1.2910764792
H       -1.4120308346    1.3436712215    0.3157392006
O       -1.3323359262   -0.7125397268   -0.1259883417
H       -1.7099910429   -0.7918136815    0.7782739779
