12   
Generated by ForceBalance from qchem.out: Frame 8 of 8
C        1.6455066313   -0.4337928872   -0.1553880410
C        0.5964090415    0.5364557263    0.3807897175
H        1.2789233332   -1.4607647404   -0.1099203761
H        2.5698878121   -0.3783465378    0.4221568545
H        1.8850041102   -0.2056407839   -1.1956452567
H        0.3930369385    0.3526441452    1.4366786640
C       -0.7283056772    0.4490915517   -0.3691123116
H        0.9844523855    1.5563046929    0.3013799610
H       -0.5738850368    0.1593323206   -1.4128083429
H       -1.2297233325    1.4203973555   -0.3643408438
O       -1.5755852421   -0.5378486981    0.2812170619
H       -2.4688934809   -0.1383775981    0.3494445959
