12   
Generated by ForceBalance from qchem.out: Frame 12 of 12
C        1.8866523526   -0.1113394781    0.0601042197
C        0.5052137466    0.5163067725   -0.1118684232
H        1.9625035143   -0.6161927608    1.0244585166
H        2.6707613950    0.6453484679    0.0114481336
H        2.0837900424   -0.8479665297   -0.7212425109
H        0.3432812482    1.2314029998    0.7016429921
C       -0.6090315341   -0.5189896671   -0.0619824685
H        0.4455393467    1.0782167261   -1.0470860088
H       -0.4238994725   -1.2136719985    0.7640191925
H       -0.6469464424   -1.0984512226   -0.9866512271
O       -1.9216841190    0.0656797584    0.1242761932
H       -1.7721936234    0.9899461553    0.4190073393
