12   
Generated by ForceBalance from qchem.out: Frame 8 of 8
C        1.8915286511   -0.1205037376   -0.0342371221
C        0.5043192303    0.5149940300    0.0300367638
H        2.0564752447   -0.7846436466    0.8164955415
H        2.6739603867    0.6394756516   -0.0217555180
H        2.0109692298   -0.7092782076   -0.9460045567
H        0.3988445951    1.1215291089    0.9316928948
C       -0.6041112345   -0.5258194735    0.0194507290
H        0.3659595218    1.1875529836   -0.8217069489
H       -0.5418877620   -1.1589672707    0.9053827212
H       -0.5179346422   -1.1728951374   -0.8600037760
O       -1.9177948817    0.0772023628    0.0803651761
H       -2.0833093174    0.4473744737   -0.8153564550
