12   
Generated by ForceBalance from qchem.out: Frame 8 of 8
C        1.4343786517   -0.5769131560    0.0711278912
C        0.6701232166    0.7203140722   -0.1750628973
H        1.3685952935   -0.8833310054    1.1166452409
H        2.4887883913   -0.4499537542   -0.1798015243
H        1.0235693225   -1.3809184783   -0.5352933406
H        1.1144729998    1.5469003556    0.3856458252
C       -0.8109457385    0.6229908779    0.1961356927
H        0.7628627444    0.9787722623   -1.2337724245
H       -1.4059249253    1.3369566939   -0.3774705578
H       -0.9419445881    0.8614616190    1.2551274788
O       -1.3091688493   -0.7303786509    0.0213952065
H       -2.0356940740   -0.6830761956   -0.6365325361
