12   
Generated by ForceBalance from qchem.out: Frame 8 of 8
C        1.8824171492   -0.1342543580    0.1298082164
C        0.5266008225    0.4977350734   -0.1784561673
H        1.8964145551   -0.5467834999    1.1402789892
H        2.6858481445    0.5997659304    0.0544287588
H        2.1062466488   -0.9459665949   -0.5655059245
H        0.3328088486    1.2928988684    0.5483790737
C       -0.6120239546   -0.5109769141   -0.0958960977
H        0.5259026749    0.9688457212   -1.1633061454
H       -0.4746128566   -1.1574859698    0.7785727805
H       -0.6415875459   -1.1480916345   -0.9798944950
O       -1.9112982979    0.1204567718   -0.0406724211
H       -1.8970693203    0.6790782995    0.7685795906
