12   
Generated by ForceBalance from qchem.out: Frame 8 of 8
C        1.8928818878   -0.1236994248    0.0384558765
C        0.5074626955    0.5131382394   -0.0390564852
H        2.0123764688   -0.6839004462    0.9675410863
H        2.6760448035    0.6344509862   -0.0004227947
H        2.0508788630   -0.8132176785   -0.7927598972
H        0.3709207913    1.2007184691    0.8015691569
C       -0.6055811923   -0.5203702932   -0.0061620310
H        0.4139116975    1.1018637231   -0.9556358735
H       -0.5370630280   -1.1122826234    0.9123248378
H       -0.5216421493   -1.2026755757   -0.8547857009
O       -1.9253604315    0.0738194071   -0.0792327030
H       -1.8070068513    1.0300812917    0.1096782861
