12   
Generated by ForceBalance from qchem.out: Frame 9 of 9
C        1.4175996517   -0.5822795814    0.0029413809
C        0.6864468870    0.7579808620    0.0633391082
H        1.1743713570   -1.2159134388    0.8576619588
H        2.4964818637   -0.4207759165    0.0170814570
H        1.1607967712   -1.1293228267   -0.9033471129
H        0.9463988516    1.2635092387    0.9965605423
C       -0.8518891912    0.6466101570   -0.0520620970
H        1.0582015767    1.3965198029   -0.7407897093
H       -1.2091400342    1.1512789845   -0.9486461934
H       -1.3345883842    1.1223669602    0.8071966573
O       -1.3509845707   -0.7037323449   -0.1982147629
H       -1.0584245959   -1.1894579806    0.6048607582
