12   
Generated by ForceBalance from qchem.out: Frame 8 of 8
C        1.7306586117   -0.4034132992    0.0856112316
C        0.5988484395    0.5185795769   -0.3612136871
H        2.0201663851   -0.1914220619    1.1167395998
H        2.6149681567   -0.2809898718   -0.5422202385
H        1.4218577360   -1.4492850775    0.0295412537
H        0.9380266740    1.5554986148   -0.2916450524
C       -0.6773496994    0.3424881858    0.4615051301
H        0.3400091134    0.3394640032   -1.4057494599
H       -1.1156450153    1.3102471031    0.7213053981
H       -0.4678830168   -0.1868984868    1.3946598490
O       -1.6507018831   -0.3902028118   -0.3333236788
H       -2.0416909679   -1.0735743452    0.2529309155
