12   
Generated by ForceBalance from qchem.out: Frame 7 of 7
C        1.8287635317   -0.0935180672    0.2662768391
C        0.5594107507    0.4375926048   -0.3968663627
H        1.6820057106   -0.2169675641    1.3410132069
H        2.6686468471    0.5869086163    0.1169709629
H        2.1107382519   -1.0651231603   -0.1444517623
H        0.3065413954    1.4097075333    0.0344403239
C       -0.6465832249   -0.4936711062   -0.2054419621
H        0.7339712358    0.6168541418   -1.4596511375
H       -0.4197115648   -1.2519957845    0.5523931326
H       -0.9040144314   -1.0153811409   -1.1265398187
O       -1.8543426067    0.2114058245    0.1660289998
H       -1.6438176574    0.6627660100    1.0139646893
