12   
Generated by ForceBalance from qchem.out: Frame 12 of 12
C        1.7561415822   -0.3680851520    0.1131480328
C        0.5813098340    0.4738075903   -0.3810131376
H        2.0497026307   -0.0776996311    1.1240354801
H        2.6277850605   -0.2514928026   -0.5332269118
H        1.4928507928   -1.4276695497    0.1319999042
H        0.8807631813    1.5234496786   -0.4230479717
C       -0.6755152643    0.3215435845    0.4853768074
H        0.3089083618    0.1835034639   -1.3967587052
H       -0.9928216737    1.2843188451    0.8924352792
H       -0.4831880444   -0.3429978864    1.3314101370
O       -1.7802902378   -0.1894607016   -0.3116439429
H       -2.0543816894   -1.0387259096    0.0954262895
