12   
Generated by ForceBalance from qchem.out: Frame 8 of 8
C        1.4297112961   -0.5837048062    0.0928485933
C        0.6905087812    0.7413999531   -0.0753295512
H        1.1941749382   -1.0504378215    1.0494281833
H        2.5078514175   -0.4219278288    0.0440168175
H        1.1587405792   -1.2894879768   -0.6909856552
H        1.0378883969    1.4616638772    0.6687985354
C       -0.8411282162    0.6125352044    0.0353208088
H        0.9541466727    1.1623980841   -1.0498517027
H       -1.3443479236    1.2539285898   -0.6936375304
H       -1.1701133928    0.9231747654    1.0270201803
O       -1.3292688518   -0.7464249223   -0.0657659857
H       -1.2657229488   -0.9909150471   -1.0166061174
