12   
Generated by ForceBalance from qchem.out: Frame 8 of 8
C        1.6203157452   -0.4664532622   -0.1272929289
C        0.6034028787    0.5595616654    0.3634629380
H        1.2078363809   -1.4749839160   -0.0600089326
H        2.5354467913   -0.4373095166    0.4665317486
H        1.8890565539   -0.2773243923   -1.1684460018
H        0.3791720829    0.4161870634    1.4217889702
C       -0.7134745906    0.4944267840   -0.3971144223
H        1.0269505428    1.5627782354    0.2591928128
H       -0.5492327042    0.1888634857   -1.4338255780
H       -1.2060127299    1.4712239012   -0.4103435067
O       -1.5925540822   -0.4402051384    0.2872539243
H       -1.9989840203   -1.0087759369   -0.4021851142
