12   
Generated by ForceBalance from qchem.out: Frame 8 of 8
C        1.8744236209   -0.1077388160   -0.1328892390
C        0.5156381945    0.5090104094    0.1929980358
H        2.1244032712   -0.9064125175    0.5684568578
H        2.6678192975    0.6393928571   -0.0837243429
H        1.8691021636   -0.5326598903   -1.1376302867
H        0.5360470254    1.0105082068    1.1632865175
C       -0.6148232606   -0.5167567397    0.1479168688
H        0.3064804661    1.2790397250   -0.5568032650
H       -0.7378203214   -1.0046198520    1.1181194794
H       -0.3791886289   -1.2905706628   -0.5881712001
O       -1.8954409132    0.0468504963   -0.2339116118
H       -1.7455933049    1.0043276765   -0.3853984264
