12   
Generated by ForceBalance from qchem.out: Frame 10 of 10
C        1.4498458068   -0.5530732572    0.0304381156
C        0.6729505560    0.7625723472   -0.0160497501
H        1.1838957992   -1.1410307383    0.9093413199
H        2.5209785027   -0.3511553042    0.0703790504
H        1.2773911320   -1.1636742351   -0.8591049936
H        0.9884768865    1.3757368211    0.8306100676
C       -0.8674334796    0.6146597662    0.0182385765
H        0.9625507901    1.3117046933   -0.9144895468
H       -1.3027836957    1.0951557742   -0.8634633693
H       -1.2824925154    1.1061335038    0.8979785034
O       -1.3640502538   -0.7437107359    0.0894233193
H       -0.7059262226   -1.3100100919   -0.3663224836
