12   
Generated by ForceBalance from qchem.out: Frame 7 of 7
C        1.4551930492   -0.5512420785   -0.0368043275
C        0.6769314399    0.7523737669    0.1210846428
H        1.1008581940   -1.2938736506    0.6762188332
H        2.5190081814   -0.3855197691    0.1385896373
H        1.3510939082   -0.9650561901   -1.0432786704
H        0.8286790860    1.1152589290    1.1403877081
C       -0.8291658859    0.5976439280   -0.1369574781
H        1.0744569975    1.5214137524   -0.5461433229
H       -1.0556815978    0.8144834152   -1.1859726626
H       -1.4043706792    1.2916661948    0.4748898083
O       -1.3396727446   -0.7153850050    0.1958147722
H       -1.0340242043   -1.3092140188   -0.5247324058
