12   
Generated by ForceBalance from qchem.out: Frame 12 of 12
C        1.7842312672   -0.3193521536   -0.1038748625
C        0.5652788239    0.4493114020    0.4012636159
H        1.5728362773   -1.3893566670   -0.1419328281
H        2.6463427578   -0.1680433913    0.5479464568
H        2.0652314598    0.0031911215   -1.1085817779
H        0.3065964165    0.1085110406    1.4051858454
C       -0.6761989716    0.2405532366   -0.4782463241
H        0.8063133243    1.5123747112    0.4798435857
H       -0.4578057775   -0.4703918690   -1.2778919166
H       -0.9970265984    1.1720396745   -0.9503426530
O       -1.7706412096   -0.3444475334    0.2779635138
H       -2.4149533460    0.3773108196    0.4418273717
