12   
Generated by ForceBalance from qchem.out: Frame 8 of 8
C        1.8857486903   -0.1227302073   -0.0887174869
C        0.5204005928    0.5296779679    0.1186454759
H        2.0935228809   -0.8620210812    0.6878825432
H        2.6851851964    0.6191774547   -0.0635369775
H        1.9298434426   -0.6314224321   -1.0537036571
H        0.4867174728    1.0795732193    1.0609501432
C       -0.6155747170   -0.4845453942    0.0879976488
H        0.3435087999    1.2594786321   -0.6759230861
H       -0.6667734492   -1.0400203749    1.0256555500
H       -0.4572993271   -1.2090949985   -0.7168607213
O       -1.9045061888    0.1599938841   -0.0654221137
H       -2.0637543720    0.2179544676   -1.0326078688
