12   
Generated by ForceBalance from qchem.out: Frame 6 of 6
C        1.4521885971   -0.5502582809   -0.1012508961
C        0.6363394976    0.6927488723    0.2433103589
H        1.0337632158   -1.4390524451    0.3687641487
H        2.4848096076   -0.4410921341    0.2337478730
H        1.4605705700   -0.7228919067   -1.1790028163
H        0.6385242156    0.8359348229    1.3291114662
C       -0.8061716869    0.6133320287   -0.2424934261
H        1.0983930118    1.5871753464   -0.1835470392
H       -0.8492862935    0.7034282814   -1.3288043720
H       -1.3992066350    1.4268864185    0.1891403936
O       -1.4305191295   -0.6620790610    0.0340620544
H       -1.1931375628   -0.8822523422    0.9635014444
