12   
Generated by ForceBalance from qchem.out: Frame 8 of 8
C        1.8792848083   -0.1333864467    0.1105761936
C        0.5133200442    0.5073949583   -0.1243809429
H        1.9149051466   -0.6138521521    1.0895368165
H        2.6749088102    0.6116530351    0.0698972801
H        2.0926510352   -0.8924258237   -0.6446315327
H        0.3271883801    1.2402355836    0.6672088197
C       -0.6155176748   -0.5121472720   -0.0981003128
H        0.4976675717    1.0486051904   -1.0739717568
H       -0.4864124897   -1.1848029861    0.7545375401
H       -0.6101212751   -1.1171664676   -1.0085996864
O       -1.9261768679    0.0949813380    0.0282255096
H       -1.7802798970    1.0645439817    0.0696505651
