12   
Generated by ForceBalance from qchem.out: Frame 8 of 8
C        1.9033976279   -0.1373027197    0.0145043370
C        0.5326339451    0.5351854754    0.0047920475
H        2.0234433011   -0.7713715854    0.8955005818
H        2.7039760193    0.6037042964    0.0248928270
H        2.0398564037   -0.7637618289   -0.8694773314
H        0.4109143153    1.1642228867    0.8890239848
C       -0.5991216705   -0.4743046072   -0.0207954467
H        0.4327440890    1.1879895219   -0.8649612225
H       -0.5345850941   -1.1310719049    0.8515364077
H       -0.5385828651   -1.1023957113   -0.9151871796
O       -1.8610094253    0.2423453984   -0.0286418030
H       -2.4431155622   -0.2032318003    0.6235059526
