12   
Generated by ForceBalance from qchem.out: Frame 10 of 10
C        1.4568717357   -0.5438140165   -0.0851257357
C        0.6481267664    0.7327893020    0.1442680246
H        1.2033919072   -1.3192379846    0.6402124451
H        2.5217487875   -0.3400678395    0.0346803383
H        1.3069687083   -0.9455378314   -1.0897884175
H        0.7836585623    1.0348810510    1.1859558529
C       -0.8519529323    0.6085935639   -0.1629942328
H        1.0528004493    1.5419460199   -0.4675278321
H       -1.0238140682    0.8770457623   -1.2103265532
H       -1.4282224911    1.2985077415    0.4555320216
O       -1.4232204685   -0.7060051921    0.0381668166
H       -0.6783898114   -1.3377300233    0.1092938087
