12   
Generated by ForceBalance from qchem.out: Frame 8 of 8
C        1.6076890331   -0.4690721731    0.1612484103
C        0.6095602952    0.5674085297   -0.3455798970
H        1.8442016753   -0.2964064781    1.2129921676
H        2.5409861042   -0.4326391398   -0.4032137503
H        1.1940861989   -1.4746435758    0.0657215316
H        1.0320736930    1.5677738645   -0.2145071151
C       -0.7297905950    0.4945822946    0.3722175839
H        0.4180859034    0.4400513403   -1.4124777331
H       -1.2181352271    1.4741817780    0.3964891995
H       -0.5978961042    0.1591543874    1.4050877348
O       -1.5713993727   -0.4294145989   -0.3676142158
H       -2.1788323646   -0.8431952841    0.2848254807
