12   
Generated by ForceBalance from qchem.out: Frame 8 of 8
C        1.6262801881   -0.4693331921   -0.1075764544
C        0.5986033243    0.5661142366    0.3432584975
H        1.2359448629   -1.4833163280    0.0051574517
H        2.5443925437   -0.4027396225    0.4784635152
H        1.8865426153   -0.3233704698   -1.1577653015
H        0.3709418470    0.4602953702    1.4051801597
C       -0.7180737322    0.4770538063   -0.4222623683
H        1.0213190633    1.5655613344    0.2046973834
H       -0.5550919572    0.1906421758   -1.4652977196
H       -1.2234853074    1.4438491960   -0.4178405116
O       -1.6551148860   -0.4231056783    0.2240709087
H       -1.4928133108   -1.3142732708   -0.1566823970
