12   
Generated by ForceBalance from qchem.out: Frame 9 of 9
C        1.7597422571   -0.3394547437    0.1513892097
C        0.5761214231    0.4375274944   -0.4224486954
H        2.0607891705    0.0652652049    1.1195836307
H        2.6246626677   -0.2943941292   -0.5125868192
H        1.5043659526   -1.3915269959    0.2959305423
H        0.8651475476    1.4808605060   -0.5672001795
C       -0.6827902470    0.3601551203    0.4562566618
H        0.3130580326    0.0534400391   -1.4101135471
H       -1.0310723338    1.3542932253    0.7351371512
H       -0.4798095329   -0.1893954789    1.3810665113
O       -1.8119077609   -0.2290420969   -0.2348344748
H       -1.6282630052   -1.1944607541   -0.2717322792
