12   
Generated by ForceBalance from qchem.out: Frame 10 of 10
C        1.4289609195   -0.5649115246    0.0647479141
C        0.6543072788    0.7373696524   -0.1267673739
H        1.3144712242   -0.9629432623    1.0766150916
H        2.4944930191   -0.3998229104   -0.0995987105
H        1.1005203879   -1.3226016385   -0.6469927896
H        1.0704996683    1.5204809919    0.5112951524
C       -0.8505999157    0.6221763604    0.1625905525
H        0.8001969061    1.0654090136   -1.1588020241
H       -1.4242043555    1.3131779219   -0.4540469108
H       -1.0371328977    0.8775351302    1.2120436235
O       -1.4179650041   -0.6812418002   -0.0996232276
H       -0.7915357349   -1.3324496396    0.2838170021
