12   
Generated by ForceBalance from qchem.out: Frame 8 of 8
C        1.6864999745   -0.4230778275   -0.1361762786
C        0.5966846147    0.5204073437    0.3675098056
H        1.3418973914   -1.4592250477   -0.1175103475
H        2.5850424663   -0.3592371830    0.4800130929
H        1.9666969067   -0.1795913739   -1.1629088590
H        0.3527185801    0.3138804087    1.4105445297
C       -0.7029243563    0.4217661409   -0.4337092481
H        0.9718811092    1.5464446568    0.3270709952
H       -0.5328206703   -0.0595580434   -1.3999384083
H       -1.1148989433    1.4146905119   -0.6290822374
O       -1.7063368706   -0.3022079555    0.3318622658
H       -1.9552804747   -1.0907310067   -0.1961748479
