12   
Generated by ForceBalance from qchem.out: Frame 12 of 12
C        1.5060538305   -0.5243804211   -0.1403570189
C        0.6398205061    0.6618797884    0.2702197098
H        1.0685723258   -1.4541686216    0.2220138231
H        2.5144539025   -0.4343661736    0.2667651326
H        1.5857164450   -0.5876995694   -1.2275614222
H        0.5922546623    0.7336239433    1.3591338572
C       -0.7755729848    0.5480071739   -0.2640183914
H        1.0773617556    1.5954392761   -0.0970594764
H       -0.7734404742    0.4939519802   -1.3574143979
H       -1.3640743537    1.4216947458    0.0285423393
O       -1.3736507071   -0.6667470193    0.2631475316
H       -2.2772637827   -0.4283191497    0.5623969437
