12   
Generated by ForceBalance from qchem.out: Frame 12 of 12
C       -1.7611096048   -0.2885812775    0.2280770199
C       -0.5668455865    0.3155277549   -0.5075625156
H       -1.5212441707   -1.2843496758    0.6055446079
H       -2.6289630807   -0.3748040957   -0.4278653625
H       -2.0455797018    0.3316638691    1.0797942281
H       -0.3302166452   -0.2965856509   -1.3830181925
C        0.6842112586    0.4333471537    0.3784452690
H       -0.8395930119    1.2971562572   -0.9017902890
H        0.4598011395    0.0745547604    1.3879137447
H        1.0123577415    1.4708231475    0.4616509553
O        1.8307227166   -0.3069224758   -0.1129268156
H        1.4924574175   -0.9284926275   -0.7919922799
