12   
Generated by ForceBalance from qchem.out: Frame 10 of 10
C        1.4600125386   -0.5395338150   -0.0521245183
C        0.6636974395    0.7507478521    0.1315684166
H        1.1645300824   -1.2876773017    0.6837176747
H        2.5256261064   -0.3496154619    0.0820654388
H        1.3290966034   -0.9620912196   -1.0520170825
H        0.8241693061    1.0980930897    1.1551953729
C       -0.8445317732    0.6002558583   -0.1216528900
H        1.0502156777    1.5318288451   -0.5271800570
H       -1.0586680283    0.8297631863   -1.1718825765
H       -1.4185539183    1.2928761242    0.4927385071
O       -1.3793334245   -0.7086950635    0.1783905864
H       -0.7482934648   -1.3545815408   -0.2064723356
