12   
Generated by ForceBalance from qchem.out: Frame 10 of 10
C        1.4501761697   -0.5509291678   -0.0076501624
C        0.6745891065    0.7639256767    0.0539332580
H        1.1486483769   -1.2190080437    0.7987433661
H        2.5194079199   -0.3605395322    0.0929836303
H        1.3061288934   -1.0691549091   -0.9593037951
H        0.9193389675    1.2488120613    1.0017132307
C       -0.8586233780    0.6093484525   -0.0545235415
H        1.0218041271    1.4360644699   -0.7336740356
H       -1.1937225081    0.9610701734   -1.0362153085
H       -1.3686131635    1.2064333987    0.7001352285
O       -1.3536371117   -0.7354443148    0.1433114534
H       -0.7647357535   -1.3220643672   -0.3791069279
