12   
Generated by ForceBalance from qchem.out: Frame 6 of 6
C        1.4672049774   -0.5353436532    0.1112364905
C        0.6522265109    0.7298843717   -0.1589890117
H        1.2946461725   -0.9150002787    1.1197568625
H        2.5324327878   -0.3258651454    0.0043499006
H        1.2329448614   -1.3342870949   -0.5941652311
H        1.0521098571    1.5626438623    0.4237481554
C       -0.8441312682    0.6006372937    0.1548773715
H        0.7810664892    1.0014967032   -1.2105390400
H       -1.4182747749    1.2968804811   -0.4631477815
H       -1.0256454109    0.8568678885    1.2010165221
O       -1.3921582406   -0.7300499947   -0.0072340246
H       -0.7398869556   -1.2490986759   -0.5224058804
