12   
Generated by ForceBalance from qchem.out: Frame 7 of 7
C        1.8670457327   -0.1272064247    0.1314560776
C        0.5098264729    0.5180740878   -0.1418685668
H        1.8546109954   -0.6486987171    1.0896652481
H        2.6605291987    0.6208483284    0.1628507099
H        2.1239315681   -0.8532738303   -0.6428476975
H        0.2730346806    1.2030059593    0.6763792743
C       -0.6189386272   -0.5064285280   -0.2182230197
H        0.5437408062    1.1118610960   -1.0593126123
H       -0.4309107601   -1.3310744681    0.4703965328
H       -0.7003134068   -0.9240390168   -1.2276459172
O       -1.8931461368    0.0307407617    0.2103219343
H       -1.9697315642    0.9124978226   -0.2191726648
