12   
Generated by ForceBalance from qchem.out: Frame 12 of 12
C       -1.8150832863   -0.1036927828    0.2861952026
C       -0.5488309054    0.3970003691   -0.4060120306
H       -2.0905376794   -1.0984218967   -0.0695285239
H       -2.6582157381    0.5629325675    0.0984066512
H       -1.6620351886   -0.1638170569    1.3647573839
H       -0.7237989581    0.5302556757   -1.4757481379
C        0.6550378981   -0.5234588533   -0.1674665933
H       -0.3160836209    1.3895654266   -0.0071487541
H        0.8586830267   -1.1357461231   -1.0492681861
H        0.4437190720   -1.2005536424    0.6648510934
O        1.8797352169    0.1770151588    0.1698789717
H        1.6655791633    1.1337543006    0.1733097893
