12   
Generated by ForceBalance from qchem.out: Frame 7 of 7
C        1.4649122912   -0.5563896261    0.1099170316
C        0.6815076331    0.7210093854   -0.1768096489
H        1.3627909809   -0.8559418241    1.1541599773
H        2.5253524044   -0.4092178934   -0.1013177051
H        1.1025631498   -1.3796092799   -0.5026866640
H        1.0927646292    1.5639907459    0.3844314902
C       -0.8100079389    0.5978055797    0.1511867918
H        0.8024895332    0.9715780169   -1.2354982030
H       -1.4026280206    1.3117909415   -0.4283359988
H       -0.9740452633    0.8119323677    1.2080689939
O       -1.3263269454   -0.7451775705   -0.0031102598
H       -1.4086382171   -0.8971879842   -0.9720564139
