12   
Generated by ForceBalance from qchem.out: Frame 8 of 8
C        1.8455740424   -0.1018972822    0.2159351880
C        0.5317588436    0.4930420653   -0.2873368032
H        1.7506957282   -0.4093435374    1.2584288214
H        2.6595595027    0.6213891108    0.1466502616
H        2.1286835741   -0.9797089656   -0.3681986415
H        0.2877026202    1.3540884346    0.3430976335
C       -0.6290218084   -0.5079438717   -0.2237833506
H        0.6494242561    0.8799509594   -1.3018115300
H       -0.3559099081   -1.3511334601    0.4167451844
H       -0.8559176937   -0.9053756616   -1.2159992960
O       -1.8574152910    0.0414656664    0.3181716957
H       -1.6737162742    0.9790994810    0.5380493298
