12   
Generated by ForceBalance from qchem.out: Frame 9 of 9
C        1.4061987141   -0.6042347700    0.0523826379
C        0.7083661584    0.7516826468   -0.0092746705
H        1.1595985173   -1.1399884112    0.9704291292
H        2.4890117525   -0.4712034837    0.0229478362
H        1.1072484156   -1.2298151325   -0.7861079357
H        1.0411934875    1.3815222874    0.8194907861
C       -0.8311837857    0.6586374148    0.0086483614
H        1.0248343270    1.2598066970   -0.9230511463
H       -1.2633764540    1.3023643814   -0.7585990027
H       -1.2223403361    0.9947005645    0.9717288449
O       -1.3171765247   -0.6813696062   -0.2671150829
H       -1.6176265537   -1.0498112525    0.5908769221
