12   
Generated by ForceBalance from qchem.out: Frame 7 of 7
C        1.8598048426   -0.1195777576   -0.1714589311
C        0.5259739918    0.5022002346    0.2372001117
H        2.1192564150   -0.9585041344    0.4775038807
H        2.6689616001    0.6097431564   -0.1125356507
H        1.8107262725   -0.4911712690   -1.1960464629
H        0.5925751251    0.9567674033    1.2280770820
C       -0.6226574120   -0.5040623109    0.1870927964
H        0.3029595953    1.3136221396   -0.4637694486
H       -0.7327678244   -1.0268734704    1.1390026828
H       -0.4134106098   -1.2531785300   -0.5837643392
O       -1.9079980846    0.0928503639   -0.1161441284
H       -1.7214289528    0.9914194048   -0.4629643852
