12   
Generated by ForceBalance from qchem.out: Frame 7 of 7
C        1.8972696424   -0.1218488220    0.0241411523
C        0.5169291574    0.5245793424   -0.0680494934
H        2.0083214468   -0.6755683565    0.9584006255
H        2.6869374840    0.6294904023   -0.0168274718
H        2.0553941754   -0.8198054065   -0.8001193377
H        0.3901761430    1.2366435352    0.7539521257
C       -0.6039379404   -0.5000926431   -0.0035609853
H        0.4202594542    1.0909140275   -0.9971941529
H       -0.5216152437   -1.0877020926    0.9182167972
H       -0.5511419561   -1.1889437278   -0.8472756242
O       -1.9146675848    0.1046075858   -0.0902825841
H       -1.8887161798    0.8807557484    0.5132303518
