12   
Generated by ForceBalance from qchem.out: Frame 8 of 8
C        1.8412032311   -0.1542741874    0.2282179464
C        0.5531275594    0.5362079857   -0.2164025225
H        1.7198389875   -0.5946668969    1.2197844416
H        2.6728383255    0.5508989669    0.2734503589
H        2.1215695502   -0.9540996704   -0.4607617471
H        0.2838119089    1.3087632007    0.5058834942
C       -0.6358466280   -0.4261151297   -0.3084257019
H        0.7064780730    1.0409429503   -1.1723204483
H       -0.3962831404   -1.3687817275    0.1905098144
H       -0.8804908117   -0.6602617242   -1.3470661211
O       -1.8161497769    0.1654416487    0.3014078358
H       -2.0829809244   -0.4315878030    1.0320880672
