12   
Generated by ForceBalance from qchem.out: Frame 7 of 7
C        1.5247644950   -0.4946757141   -0.1142248760
C        0.6274450918    0.6739386718    0.2896465335
H        1.1929458463   -1.4348296289    0.3305950749
H        2.5493151833   -0.3301030167    0.2223183001
H        1.5440582110   -0.6192763682   -1.1993238541
H        0.5860030090    0.7470911738    1.3791748553
C       -0.7915555283    0.5657359387   -0.2515681628
H        1.0597056729    1.6092076059   -0.0772771352
H       -0.7698399843    0.5892185327   -1.3477242904
H       -1.4027824837    1.4002670576    0.0923860528
O       -1.4893126726   -0.6185960684    0.1950497705
H       -0.8545872084   -1.3615530745    0.0966024917
