12   
Generated by ForceBalance from qchem.out: Frame 12 of 12
C        1.4126538118   -0.5872353034   -0.0801695734
C        0.6928842505    0.7483380738    0.0833793487
H        1.0510546427   -1.3034719479    0.6551056378
H        2.4878926783   -0.4615335285    0.0551855368
H        1.2533591456   -1.0114464466   -1.0746048123
H        0.9036449754    1.1260871102    1.0867549319
C       -0.8279106982    0.6450724062   -0.1002845104
H        1.0867634021    1.4899527063   -0.6164834346
H       -1.0990358251    0.8457290079   -1.1408983265
H       -1.3438565863    1.3781135643    0.5200943858
O       -1.3576450466   -0.6463857889    0.2908321953
H       -1.3287023158   -1.2060312588   -0.5152345829
