12   
Generated by ForceBalance from qchem.out: Frame 12 of 12
C        1.5339410783   -0.5266717454   -0.1026571897
C        0.6373016920    0.6350426645    0.3116405085
H        1.0864339492   -1.4737256414    0.1952469634
H        2.5182615387   -0.4458021195    0.3613243835
H        1.6734775748   -0.5425727205   -1.1858409356
H        0.5211986107    0.6472271248    1.3979790024
C       -0.7412073380    0.5574729908   -0.3142827034
H        1.0908605290    1.5894007073    0.0282162285
H       -0.6583285917    0.5756500809   -1.4065388874
H       -1.3585906402    1.4079783424   -0.0057302700
O       -1.3475088598   -0.6839601587    0.1208718499
H       -2.1174685608   -0.8380454103   -0.4708664206
