12   
Generated by ForceBalance from qchem.out: Frame 8 of 8
C        1.4860534414   -0.5368356805   -0.0497804039
C        0.6419238534    0.7026822528    0.2361717011
H        1.1189100231   -1.3950350173    0.5134681238
H        2.5241660923   -0.3731743608    0.2422344297
H        1.4792427747   -0.7903194463   -1.1132777884
H        0.6424801893    0.8840602233    1.3136563494
C       -0.8015996007    0.5755058820   -0.2472040248
H        1.0871191435    1.5832663180   -0.2349256104
H       -0.8428542881    0.7268430615   -1.3321791545
H       -1.4388034221    1.3258019667    0.2200336906
O       -1.4094686071   -0.6938727427    0.0815798970
H       -0.8553814063   -1.3758319664   -0.3579562931
