12   
Generated by ForceBalance from qchem.out: Frame 7 of 7
C        1.4067223707   -0.5915925822   -0.0622822811
C        0.6753790187    0.7372854128    0.1084469800
H        1.0193620369   -1.3299101979    0.6378718959
H        2.4742608203   -0.4673549275    0.1243504221
H        1.2962066695   -0.9878696518   -1.0751137788
H        0.8395866121    1.0821749524    1.1321601560
C       -0.8358252904    0.6396882072   -0.1482673741
H        1.0998553300    1.4999201587   -0.5493417432
H       -1.0560340695    0.8741452690   -1.1948658688
H       -1.3845758191    1.3486756936    0.4707096116
O       -1.3931200807   -0.6568564440    0.1735689017
H       -1.1103208095   -1.2548920935   -0.5528593583
