12   
Generated by ForceBalance from qchem.out: Frame 8 of 8
C        1.4737615809   -0.5202517728   -0.1552110181
C        0.6402232267    0.7126491787    0.1945890126
H        1.2180063716   -1.3834407582    0.4614464493
H        2.5338911206   -0.3210156935    0.0076201652
H        1.3388159519   -0.8046145968   -1.2006863554
H        0.7306565083    0.9091050124    1.2669923310
C       -0.8357145514    0.5889225839   -0.1726171819
H        1.0421492578    1.5907558667   -0.3168753372
H       -0.9508599491    0.6919709212   -1.2556203531
H       -1.4117651060    1.3856362833    0.3046449213
O       -1.4408302278   -0.6757516196    0.1904187869
H       -0.7437962281   -1.2159641902    0.6171063635
