12   
Generated by ForceBalance from qchem.out: Frame 8 of 8
C        1.8869836391   -0.1347354890   -0.0800966271
C        0.5237159590    0.5356376805    0.0767087015
H        2.0920041534   -0.8171560447    0.7477517216
H        2.6883163577    0.6051534705   -0.1065625990
H        1.9314838086   -0.7107410854   -1.0065324228
H        0.4923971572    1.1507683115    0.9781305999
C       -0.6132457772   -0.4738201753    0.1156708507
H        0.3436201682    1.2042964269   -0.7678581167
H       -0.6510168459   -0.9864075486    1.0804822335
H       -0.4607977367   -1.2339169121   -0.6555778859
O       -1.8824949976    0.2014955063   -0.0906424710
H       -2.2805738004   -0.1905714914   -0.8963692600
