12   
Generated by ForceBalance from qchem.out: Frame 12 of 12
C        1.4586482541   -0.5315008798    0.1182594603
C        0.6454474481    0.7274344593   -0.1768331655
H        1.3366438590   -0.8551316758    1.1551712435
H        2.5212651604   -0.3492549834   -0.0472763771
H        1.1693637787   -1.3535850869   -0.5379207924
H        1.0586083814    1.5789115888    0.3701687558
C       -0.8335992118    0.6022451508    0.1853895044
H        0.7370001029    0.9596966835   -1.2408262376
H       -1.4210821115    1.3883166123   -0.2885551795
H       -0.9491080668    0.7027899518    1.2712840349
O       -1.4416821513   -0.6381282432   -0.2379658461
H       -0.8080436796   -1.3478693432    0.0037928410
