12   
Generated by ForceBalance from qchem.out: Frame 12 of 12
C        1.4664591994   -0.5355278125   -0.1676002664
C        0.6491786484    0.6980955926    0.2060069586
H        1.0953598699   -1.4231001431    0.3427233432
H        2.5154182263   -0.4010099186    0.1007634508
H        1.4117113897   -0.7275816033   -1.2406825249
H        0.7218088243    0.8641994612    1.2861286616
C       -0.8211360472    0.5795298741   -0.1778410588
H        1.0618452550    1.5924113719   -0.2689289844
H       -0.9411014030    0.6450619165   -1.2601316082
H       -1.3997700758    1.3907392752    0.2771367184
O       -1.3982229682   -0.7012705399    0.1671552539
H       -1.0934143384   -0.8961123559    1.0824793003
