12   
Generated by ForceBalance from qchem.out: Frame 8 of 8
C        1.6977737027   -0.4174336022   -0.1024305462
C        0.5857308197    0.5137699757    0.3737889230
H        1.3621292128   -1.4564781946   -0.0915150897
H        2.5795278955   -0.3436601005    0.5364985297
H        2.0011240538   -0.1711009699   -1.1218712663
H        0.3149300393    0.2992595674    1.4086005357
C       -0.6887498707    0.4014008575   -0.4627256445
H        0.9501904262    1.5440439618    0.3479307560
H       -0.4857097236   -0.0951811112   -1.4151295544
H       -1.1023005017    1.3889533760   -0.6862314998
O       -1.6847570905   -0.3378546084    0.2970893902
H       -2.0882546503   -0.9880086603   -0.3178146342
