12   
Generated by ForceBalance from qchem.out: Frame 8 of 8
C        1.8911106906   -0.1227317493    0.0418761545
C        0.5085911765    0.5163381493   -0.0705311047
H        1.9815954880   -0.6846262792    0.9732989539
H        2.6769452327    0.6337909979    0.0280150997
H        2.0780279978   -0.8123720728   -0.7842344913
H        0.3381095528    1.1873611415    0.7737838458
C       -0.6053321873   -0.5197860221   -0.0593392252
H        0.4398143802    1.1230443649   -0.9774705822
H       -0.4556951664   -1.2132042226    0.7703302910
H       -0.6141621215   -1.1060324206   -0.9830441716
O       -1.8984582116    0.0868039699    0.1846248296
H       -2.2638772604    0.3206089172   -0.6968608781
