12   
Generated by ForceBalance from qchem.out: Frame 12 of 12
C        1.5960931349   -0.4821089918    0.0755194094
C        0.6101464780    0.6035439554   -0.3489054397
H        1.7995616405   -0.4247190548    1.1469738166
H        2.5459651156   -0.3836077177   -0.4521134701
H        1.2037294197   -1.4775324253   -0.1423452411
H        1.0443032378    1.5860099431   -0.1398322369
C       -0.7289299562    0.5034230615    0.3669767381
H        0.4235274902    0.5563120614   -1.4235412331
H       -1.3265441952    1.3970123999    0.1844077994
H       -0.5872477085    0.4071885687    1.4486648561
O       -1.5409961297   -0.5820838747   -0.1421122426
H       -1.1467065388   -1.4080970643    0.2167160343
