12   
Generated by ForceBalance from qchem.out: Frame 12 of 12
C       -1.7611677804    0.2881150078    0.2283324951
C       -0.5669294790   -0.3157864660   -0.5075178090
H       -2.0453859992   -0.3321861147    1.0800932093
H       -2.6291500993    0.3741951234   -0.4274583420
H       -1.5214074149    1.2839207447    0.6057683021
H       -0.8395757660   -1.2974681073   -0.9016837884
C        0.6843054491   -0.4333801206    0.3782672439
H       -0.3305642272    0.2963557629   -1.3830246558
H        1.0126455318   -1.4707994456    0.4614178330
H        0.4600055096   -0.0746223773    1.3877727596
O        1.8305970384    0.3070911099   -0.1133158110
H        1.4921091247    0.9286007804   -0.7923254450
