12   
Generated by ForceBalance from qchem.out: Frame 8 of 8
C        1.4407981666   -0.5822739147    0.0910865467
C        0.6872228315    0.7231378981   -0.1444687681
H        1.3081993842   -0.9374050347    1.1146254596
H        2.5087122036   -0.4412141892   -0.0836885520
H        1.0751032728   -1.3580507655   -0.5777416815
H        1.0905209472    1.5242641471    0.4804958520
C       -0.8143352803    0.6057518021    0.1253400239
H        0.8463574813    1.0298761826   -1.1822215605
H       -1.3752240604    1.3437512021   -0.4521757875
H       -1.0142935304    0.7951344910    1.1834723855
O       -1.2934282868   -0.7392042568   -0.1428556710
H       -1.9762026534   -0.6631812479   -0.8435431630
