12   
Generated by ForceBalance from qchem.out: Frame 7 of 7
C        1.8325099052   -0.1080708112   -0.2521398852
C        0.5381671378    0.4413328916    0.3442210241
H        2.1156858231   -1.0491886139    0.2232381589
H        2.6577017233    0.5934966380   -0.1202529050
H        1.7127673634   -0.2957173708   -1.3203389698
H        0.6795489950    0.6981821145    1.3961830366
C       -0.6421358301   -0.5255403545    0.1792034886
H        0.2987331273    1.3800365516   -0.1657588337
H       -0.8781550141   -1.0277548873    1.1189792199
H       -0.3819495965   -1.2968309414   -0.5530409480
O       -1.8680477678    0.1058603221   -0.2682865325
H       -1.6184902996    0.9927325564   -0.6044914723
