12   
Generated by ForceBalance from qchem.out: Frame 7 of 7
C        1.6106533923   -0.4636125568    0.1528510241
C        0.6176458787    0.5706509727   -0.3676449139
H        1.8439077790   -0.2747933108    1.2021138157
H        2.5449905431   -0.4397085255   -0.4102926912
H        1.1885997172   -1.4665767907    0.0760757237
H        1.0319626038    1.5753938763   -0.2384503423
C       -0.7254747222    0.4987571402    0.3466357049
H        0.4522688298    0.4422420725   -1.4415886466
H       -1.2947127456    1.4215020708    0.1896552138
H       -0.5926566406    0.3628311612    1.4201121250
O       -1.5134033950   -0.6376832222   -0.0819801094
H       -1.6481656028   -0.5123143314   -1.0483041370
