12   
Generated by ForceBalance from qchem.out: Frame 12 of 12
C        1.4475419224   -0.5422989384   -0.1105832436
C        0.6528355813    0.7308001397    0.1697485342
H        1.1175494529   -1.3559823772    0.5355992430
H        2.5101558241   -0.3841593246    0.0780416129
H        1.3418995648   -0.8603070743   -1.1513092936
H        0.7440723625    0.9721204144    1.2315122060
C       -0.8272778781    0.6093571705   -0.1879641133
H        1.0745467383    1.5730504761   -0.3854688878
H       -0.9538604979    0.6997677005   -1.2731448914
H       -1.4109629420    1.3990665920    0.2842152148
O       -1.4286929344   -0.6253926203    0.2622667815
H       -0.9245014496   -1.3434728842   -0.1798166280
