12   
Generated by ForceBalance from qchem.out: Frame 8 of 8
C        1.8864459693   -0.1190100330   -0.1091500981
C        0.5201150928    0.5207826311    0.1291907278
H        2.1312441868   -0.8369990921    0.6764857113
H        2.6759665682    0.6335834847   -0.1302891011
H        1.8973361355   -0.6484312723   -1.0630254576
H        0.5274895618    1.1152951654    1.0467599941
C       -0.6070106127   -0.5072829304    0.1763765553
H        0.3024661878    1.2045966078   -0.6953439144
H       -0.7133780089   -0.9251192786    1.1833847568
H       -0.3989154215   -1.3313898460   -0.5070456322
O       -1.8713516201    0.0262110447   -0.2848026902
H       -1.9614199394    0.9076094009    0.1427939180
