12   
Generated by ForceBalance from qchem.out: Frame 7 of 7
C        1.7085153146   -0.3883034532   -0.1436104118
C        0.5854561036    0.4738216317    0.4267489680
H        1.3818855684   -1.4249389957   -0.2460676881
H        2.5871210670   -0.3742706369    0.5037167640
H        2.0126703064   -0.0303475550   -1.1291340861
H        0.3170469189    0.1437232156    1.4315396390
C       -0.6863903478    0.4319353314   -0.4172960327
H        0.9346252444    1.5056542256    0.5147882678
H       -0.4818493563    0.0190640481   -1.4102475564
H       -1.1082138789    1.4333751043   -0.5522628770
O       -1.6432407626   -0.3997640778    0.2887135595
H       -2.3504151670   -0.6198303289   -0.3589248338
