12   
Generated by ForceBalance from qchem.out: Frame 8 of 8
C        1.4681065075   -0.5579823782    0.1323920150
C        0.6664257341    0.6907223222   -0.2179015402
H        1.4326549209   -0.7558009901    1.2055814907
H        2.5140348076   -0.4420342392   -0.1560306340
H        1.0583738294   -1.4272808358   -0.3785634137
H        1.0950628485    1.5760971967    0.2609327836
C       -0.7959084941    0.5784345380    0.1970961210
H        0.7231357670    0.8630264306   -1.2972354965
H       -1.3904974312    1.3985069501   -0.2148562987
H       -0.8742453326    0.6240643116    1.2850677304
O       -1.3694818832   -0.7047329058   -0.1574757400
H       -1.7425186974   -0.5995368925   -1.0608306527
