12   
Generated by ForceBalance from qchem.out: Frame 8 of 8
C        1.8969096542   -0.1220804068    0.1028104939
C        0.5334507115    0.5192981770   -0.1460143611
H        1.9119347729   -0.6236095407    1.0719669656
H        2.6907014934    0.6263970604    0.0979347073
H        2.1358816998   -0.8645986724   -0.6619645692
H        0.3182721501    1.2326515047    0.6521292440
C       -0.5999434644   -0.5014238784   -0.1398476252
H        0.5343550742    1.0830389389   -1.0820872436
H       -0.3739967302   -1.2941721005    0.5771571241
H       -0.7280500009   -0.9712579476   -1.1183520925
O       -1.8397074337    0.0977663105    0.3199893620
H       -2.4031383553    0.2271853290   -0.4732732841
