12   
Generated by ForceBalance from qchem.out: Frame 12 of 12
C        1.7731097186   -0.2075034621    0.2853452276
C        0.5720499898    0.5722929407   -0.2439513800
H        1.5145746323   -0.7297213265    1.2082092620
H        2.6168294935    0.4525145299    0.4941267088
H        2.1017061689   -0.9516987309   -0.4424381195
H        0.2815214456    1.3446091760    0.4713926850
C       -0.6492276760   -0.3211183195   -0.5036099296
H        0.8580963138    1.0880443597   -1.1648201093
H       -0.3764023393   -1.3758545295   -0.4616268862
H       -1.0766197602   -0.1296159983   -1.4925283221
O       -1.6747169443   -0.1672408364    0.5088005995
H       -2.1069776838    0.6946953765    0.3175877550
