12   
Generated by ForceBalance from qchem.out: Frame 7 of 7
C        1.5889879468   -0.4888711204    0.1369528343
C        0.6172422337    0.5895305113   -0.3318599933
H        1.8054716352   -0.3766516569    1.2012129917
H        2.5339611810   -0.4330572065   -0.4059552659
H        1.1614210714   -1.4795108217   -0.0208495467
H        1.0451080232    1.5784014684   -0.1419150552
C       -0.7270019872    0.5031106169    0.3643875761
H        0.4430264651    0.5159387867   -1.4070239497
H       -1.3026395312    1.4211654091    0.2043833930
H       -0.5981253372    0.3653517977    1.4435662880
O       -1.4305188317   -0.6232063707   -0.2156066667
H       -2.3000877609   -0.6708763826    0.2419765581
