12   
Generated by ForceBalance from qchem.out: Frame 8 of 8
C        1.6678595893   -0.4360484964    0.0828728044
C        0.5939322927    0.5423989684   -0.3887687767
H        1.9444232762   -0.2348857932    1.1195630906
H        2.5700411690   -0.3619834346   -0.5264901689
H        1.3163008485   -1.4688671913    0.0241036518
H        0.9856378497    1.5601044705   -0.3029982927
C       -0.7021744399    0.4434664069    0.4111885214
H        0.3486394194    0.3838849429   -1.4403853059
H       -1.2453466112    1.3880912256    0.3744206663
H       -0.5023978994    0.2116091109    1.4622672047
O       -1.6295347390   -0.5121547720   -0.1606239187
H       -1.2773365840   -1.4023480466    0.0652982354
