12   
Generated by ForceBalance from qchem.out: Frame 8 of 8
C        1.6200102666   -0.4727015647    0.1157402726
C        0.6034715753    0.5655528043   -0.3503532409
H        1.8836125770   -0.3127835383    1.1631196849
H        2.5379616766   -0.4259407305   -0.4725481208
H        1.2115743830   -1.4806419897    0.0183756423
H        1.0296267436    1.5649864553   -0.2221450244
C       -0.7143859634    0.4875347879    0.4096242876
H        0.3783958935    0.4477331780   -1.4115233515
H       -1.2070102529    1.4630479632    0.4262587830
H       -0.5537669180    0.1783535883    1.4454850030
O       -1.6177391741   -0.4251384579   -0.2739134585
H       -1.8327170907   -1.1440100446    0.3583802003
