12   
Generated by ForceBalance from qchem.out: Frame 8 of 8
C        1.6250857562   -0.4213669352    0.2055657572
C        0.5912064519    0.5333141226   -0.3885710738
H        1.8567233962   -0.1390477366    1.2336367278
H        2.5541781549   -0.4073942170   -0.3665925989
H        1.2559825306   -1.4493640932    0.2189888905
H        0.9917969295    1.5501625078   -0.3503077850
C       -0.7457085032    0.5010530866    0.3472530094
H        0.4130355881    0.3206784709   -1.4463980464
H       -1.2565196723    1.4622718114    0.2639858827
H       -0.5896345370    0.2920363424    1.4100458276
O       -1.6694213480   -0.4791151181   -0.1938614983
H       -1.1386569989   -1.0752793432   -0.7653576825
