12   
Generated by ForceBalance from qchem.out: Frame 8 of 8
C        1.4057616214   -0.6011257666    0.0420068222
C        0.6949950086    0.7461281262   -0.0519293880
H        1.1766402666   -1.1084897753    0.9795817635
H        2.4863103103   -0.4563478283   -0.0118286475
H        1.1004215313   -1.2570599929   -0.7705210236
H        1.0537587347    1.4153836923    0.7337015826
C       -0.8386652502    0.6493936623    0.0331618121
H        0.9721229490    1.2152874645   -0.9989927281
H       -1.3125201839    1.2852297135   -0.7191750329
H       -1.1767393407    0.9956840628    1.0128733680
O       -1.2827584400   -0.7188532917   -0.1670667788
H       -1.9562678296   -0.8958890504    0.5237099328
