12   
Generated by ForceBalance from qchem.out: Frame 12 of 12
C        1.7944175899   -0.0649059023    0.3112746478
C        0.5508671927    0.4218886616   -0.4297315065
H        1.5982273731   -0.1630745062    1.3808083865
H        2.6288695891    0.6265796102    0.1831567163
H        2.1094283300   -1.0415729495   -0.0602672093
H        0.2775156708    1.4212883119   -0.0798079651
C       -0.6570297654   -0.5125421008   -0.2516226411
H        0.7818171238    0.5360709664   -1.4913558590
H       -0.3703361702   -1.3795863181    0.3534784791
H       -1.0218315367   -0.8836882197   -1.2096363226
O       -1.8031205523    0.1263650607    0.3637612676
H       -1.4426344823    0.8227333435    0.9548666746
