12   
Generated by ForceBalance from qchem.out: Frame 11 of 11
C        1.4516150231   -0.5554516735   -0.0027408493
C        0.6651204872    0.7514598810    0.0879252685
H        1.1449605444   -1.2558778368    0.7748839624
H        2.5164726131   -0.3606742681    0.1304254795
H        1.3338760549   -1.0393230991   -0.9757455391
H        0.8668804939    1.1924905383    1.0666739787
C       -0.8618201168    0.6074684363   -0.1010301564
H        1.0452322549    1.4581525723   -0.6525070763
H       -1.1418410074    1.0013660590   -1.0836181245
H       -1.4033381590    1.1822239720    0.6499407675
O       -1.3807778647   -0.7396655632    0.0009429364
H       -0.6684131784   -1.3407984650   -0.3028041107
