12   
Generated by ForceBalance from qchem.out: Frame 12 of 12
C        1.4163895231   -0.5767786157    0.0395743238
C        0.6837864540    0.7624332802   -0.0161269931
H        1.2291983753   -1.1063093499    0.9769653322
H        2.4934963465   -0.4197369286   -0.0314108211
H        1.1075522895   -1.2202487374   -0.7830111544
H        1.0196447901    1.4046966013    0.8012171900
C       -0.8552276576    0.6417782322    0.0309639412
H        0.9747838896    1.2655118481   -0.9409867103
H       -1.3205044561    1.2596807003   -0.7355186121
H       -1.2286412096    0.9836941232    1.0017899806
O       -1.3608888277   -0.6897763331   -0.2226565620
H       -0.9742878967   -1.2604570990    0.4777232848
