12   
Generated by ForceBalance from qchem.out: Frame 12 of 12
C        1.8924434841   -0.1369847072   -0.0525055985
C        0.5210994178    0.5236300426    0.0659707042
H        2.0731033563   -0.8286558331    0.7734227023
H        2.6887247351    0.6087151512   -0.0414353041
H        1.9725238343   -0.7000222762   -0.9843229703
H        0.4606261939    1.1370154383    0.9670291435
C       -0.6053310543   -0.4917366418    0.0738320139
H        0.3555071055    1.1888489624   -0.7840201938
H       -0.6488226100   -1.0214434389    1.0317315457
H       -0.4448901098   -1.2356367535   -0.7148086539
O       -1.8347736760    0.2312911852   -0.1714764292
H       -2.5545226231   -0.4392048600   -0.1634429974
