12   
Generated by ForceBalance from qchem.out: Frame 8 of 8
C        1.7010533071   -0.4046441134    0.1234774776
C        0.5850519497    0.4957185216   -0.3998271248
H        2.0057814508   -0.1030129945    1.1275069197
H        2.5810238297   -0.3619341853   -0.5207320891
H        1.3676818192   -1.4433440019    0.1687357472
H        0.9434236364    1.5279435534   -0.4282022544
C       -0.6879647656    0.4181681559    0.4408287398
H        0.3155295928    0.2257840254   -1.4220312788
H       -1.1043868803    1.4132814304    0.6264097630
H       -0.4835788983   -0.0431154091    1.4113680919
O       -1.6619891321   -0.3659940412   -0.2988999050
H       -2.2292447792   -0.8123199826    0.3680882322
