12   
Generated by ForceBalance from qchem.out: Frame 8 of 8
C        1.6283799572   -0.4579998729   -0.0985484667
C        0.6114383877    0.5741830426    0.3789166898
H        1.2150523955   -1.4643792549   -0.0198642884
H        2.5435680735   -0.4172701239    0.4944708292
H        1.8949041333   -0.2808718849   -1.1422797951
H        0.3819923760    0.4358093141    1.4369249472
C       -0.6918087636    0.5035528564   -0.3979678721
H        1.0321581461    1.5783928911    0.2666816606
H       -0.5050718006    0.4214342785   -1.4731331646
H       -1.2814724238    1.4083805319   -0.2276182615
O       -1.4353469984   -0.6628286707    0.0493242791
H       -2.3639668027   -0.3721439955    0.1741440980
