12   
Generated by ForceBalance from qchem.out: Frame 8 of 8
C        1.8661957715   -0.1005629768   -0.1572340859
C        0.5194429620    0.5006971276    0.2395967006
H        2.1210895819   -0.9526167456    0.4763572693
H        2.6682588842    0.6333296022   -0.0660323774
H        1.8419821963   -0.4489690491   -1.1911418670
H        0.5588175029    0.9232678684    1.2455557844
C       -0.6240377832   -0.5088275796    0.1322079922
H        0.3025852564    1.3359184441   -0.4340668929
H       -0.7818821495   -1.0411806087    1.0700788433
H       -0.3834890120   -1.2518347085   -0.6373123186
O       -1.8974461974    0.1009488106   -0.1810553770
H       -1.7135128103    0.7420970952   -0.9029297033
