12   
Generated by ForceBalance from qchem.out: Frame 8 of 8
C        1.9057894497   -0.1258545315   -0.0295539856
C        0.5252930087    0.5181468567    0.0751050342
H        2.0864362762   -0.8162853184    0.7973691045
H        2.6936011010    0.6285592147   -0.0108080143
H        2.0008693200   -0.6875829114   -0.9607608143
H        0.4400575709    1.1071571902    0.9911254428
C       -0.5941976463   -0.5077976692    0.0277235919
H        0.3721548087    1.2066138699   -0.7586014884
H       -0.6335993435   -1.0878038443    0.9534946983
H       -0.4251713117   -1.2091940182   -0.7941958126
O       -1.8587214648    0.1597082050   -0.2251785952
H       -2.4419606846   -0.0356596225    0.5389739941
