12   
Generated by ForceBalance from qchem.out: Frame 7 of 7
C        1.4421851682   -0.5754601567    0.0850350004
C        0.6737262136    0.7226646589   -0.1474234272
H        1.3509613520   -0.9119068698    1.1192179083
H        2.5016967360   -0.4294240796   -0.1321320170
H        1.0591647533   -1.3654329038   -0.5569465759
H        1.1012818960    1.5373058072    0.4425648967
C       -0.8140229464    0.6136729335    0.1800740440
H        0.7876152276    1.0057952489   -1.1969204904
H       -1.3941887660    1.3159901551   -0.4257469051
H       -0.9879108418    0.8587112215    1.2338383020
O       -1.2453598867   -0.7489189757   -0.0586474905
H       -2.2282603538   -0.7220461869   -0.0764610778
