12   
Generated by ForceBalance from qchem.out: Frame 7 of 7
C        1.5825485114   -0.4792664682   -0.1349212309
C        0.6228940070    0.5995328215    0.3579177612
H        1.1516446722   -1.4695202502    0.0167386761
H        2.5343878603   -0.4350850200    0.3969911765
H        1.7864093968   -0.3565066408   -1.2004512213
H        0.4583994513    0.5124508372    1.4334396668
C       -0.7295423218    0.5307483507   -0.3254553264
H        1.0561642213    1.5875678204    0.1759728047
H       -0.6173302865    0.4075038179   -1.4083217101
H       -1.2925121843    1.4522370877   -0.1447573778
O       -1.4400649444   -0.5976577524    0.2438733951
H       -2.3821709049   -0.4907441460   -0.0163715384
