12   
Generated by ForceBalance from qchem.out: Frame 11 of 11
C        1.4289545604   -0.5651007531   -0.0644321678
C        0.6544954283    0.7372779435    0.1273455095
H        1.1015952162   -1.3222313318    0.6483832221
H        2.4947760215   -0.3998765441    0.0978805001
H        1.3128648921   -0.9639138547   -1.0758301933
H        0.7996707812    1.0640999402    1.1598738388
C       -0.8502702743    0.6224903788   -0.1631176584
H        1.0712171476    1.5210034186   -0.5095994366
H       -1.0358357050    0.8780297588   -1.2127191885
H       -1.4242728413    1.3136548610    0.4529562873
O       -1.4182366530   -0.6809154572    0.0978873867
H       -0.7916528293   -1.3319690857   -0.2855315653
