12   
Generated by ForceBalance from qchem.out: Frame 8 of 8
C        1.7681308372   -0.3686536175    0.0104985227
C        0.5655748476    0.5251197680   -0.2879223719
H        2.0834491899   -0.2667771913    1.0508377718
H        2.6199672296   -0.1138070924   -0.6223331832
H        1.5262571356   -1.4195039029   -0.1628830972
H        0.8455882388    1.5699801771   -0.1365950490
C       -0.6682493894    0.1862312468    0.5630304032
H        0.2743609016    0.4315334536   -1.3356546262
H       -1.0065175700    1.0578800416    1.1239304025
H       -0.4415056573   -0.6012911632    1.2875057959
O       -1.8085583012   -0.1940820408   -0.2502173155
H       -1.7495783028   -1.1678777067   -0.3656367260
