12   
Generated by ForceBalance from qchem.out: Frame 8 of 8
C        1.8985053562   -0.1388133923    0.0017774265
C        0.5251912969    0.5277391829    0.0216944679
H        2.0344868307   -0.7844032651    0.8719734755
H        2.6953677255    0.6062202019    0.0110617492
H        2.0249895595   -0.7518180023   -0.8930524897
H        0.4133290133    1.1450626880    0.9151951855
C       -0.6011362739   -0.4852319029    0.0012976608
H        0.4094728667    1.1894976789   -0.8392575573
H       -0.5308541412   -1.1436026885    0.8738197362
H       -0.5439282367   -1.1099231061   -0.8972078954
O       -1.8458817696    0.2535831369    0.0225205532
H       -2.5483474669   -0.3943485681    0.2536751434
