12   
Generated by ForceBalance from qchem.out: Frame 8 of 8
C        1.6929886147   -0.3754549380   -0.1881418225
C        0.5806388655    0.4773602925    0.4195067209
H        1.3799562823   -1.4162050243   -0.3001051749
H        2.5889173547   -0.3629630816    0.4348234287
H        1.9659455851   -0.0033459784   -1.1770067225
H        0.3492549850    0.1556464667    1.4376184216
C       -0.7165292218    0.4490266297   -0.3973842607
H        0.9360289173    1.5076793977    0.5026854182
H       -0.5188737933    0.1018479592   -1.4175330433
H       -1.1661788573    1.4395364779   -0.4635518061
O       -1.7498341605   -0.3644814281    0.2104032454
H       -1.3046504060   -1.1948378684    0.4931598876
