12   
Generated by ForceBalance from qchem.out: Frame 8 of 8
C        1.4674293655   -0.5597326349   -0.1233931425
C        0.6678237439    0.6935482561    0.2154699046
H        1.0582148277   -1.4215399020    0.4003312462
H        2.5143405616   -0.4407199774    0.1602369005
H        1.4289418496   -0.7702466756   -1.1941627491
H        0.7218911391    0.8726659709    1.2933695745
C       -0.7932648427    0.5789517752   -0.2000217799
H        1.0984553880    1.5739300700   -0.2707835092
H       -0.8713273031    0.6278483803   -1.2888286230
H       -1.3880374436    1.3975401399    0.2127346968
O       -1.3507554531   -0.7082269955    0.1742216296
H       -1.9276445043   -0.5485332924    0.9524137293
