12   
Generated by ForceBalance from qchem.out: Frame 7 of 7
C        1.4653698039   -0.5466303025   -0.1200742194
C        0.6722364089    0.7240639399    0.1739237160
H        1.1378025925   -1.3709112216    0.5111858891
H        2.5287900305   -0.3823977150    0.0612298859
H        1.3391410385   -0.8592856365   -1.1576673643
H        0.7930320584    0.9712301742    1.2334523029
C       -0.8199302727    0.5962494320   -0.1496477590
H        1.0792082263    1.5712865080   -0.3837222111
H       -0.9957417227    0.8189387681   -1.2025634691
H       -1.4085583977    1.3027890306    0.4442113668
O       -1.3360179799   -0.7466113691   -0.0022410258
H       -1.1871952056   -0.9932864898    0.9391221321
