12   
Generated by ForceBalance from qchem.out: Frame 8 of 8
C        1.4282401938   -0.5918288656   -0.0189283550
C        0.6913800388    0.7369780669    0.1288472409
H        1.0525616302   -1.3225825738    0.6940014065
H        2.4955613938   -0.4475449068    0.1577507523
H        1.2999718222   -1.0094776694   -1.0179227164
H        0.8506068897    1.1041655429    1.1460651231
C       -0.8179304873    0.6430584879   -0.1484323375
H        1.1264390798    1.4860767847   -0.5367937189
H       -1.0475887612    1.0546172323   -1.1354122048
H       -1.3805222269    1.2235723493    0.5859427905
O       -1.2559158811   -0.7421192623   -0.1445181212
H       -2.0850247826   -0.7729094848    0.3796956661
