12   
Generated by ForceBalance from qchem.out: Frame 7 of 7
C        1.7085269068   -0.3883106556    0.1436040495
C        0.5854304610    0.4736978491   -0.4268576129
H        2.0132279192   -0.0297341567    1.1287330917
H        2.5868395514   -0.3749785302   -0.5041356300
H        1.3816676249   -1.4247867118    0.2469441003
H        0.9345850931    1.5055171998   -0.5151060667
C       -0.6863571617    0.4319639755    0.4172859992
H        0.3169624234    0.1434119678   -1.4315707041
H       -1.1081881088    1.4334242344    0.5520798184
H       -0.4817439390    0.0192981224    1.4103083179
O       -1.6432417149   -0.3998817393   -0.2884998146
H       -2.3503714163   -0.6198324934    0.3592267462
