12   
Generated by ForceBalance from qchem.out: Frame 8 of 8
C        1.8620451657   -0.1496204819   -0.1559433445
C        0.5330641729    0.5070645713    0.2105761944
H        2.1071251212   -0.9666425307    0.5265901485
H        2.6803971923    0.5709752547   -0.1176654722
H        1.8204421567   -0.5594784491   -1.1665757033
H        0.5877812780    0.9817593402    1.1923962062
C       -0.6339416451   -0.4702160725    0.1648564616
H        0.3100618637    1.2972110842   -0.5094860969
H       -0.7529852935   -0.9898296238    1.1191541848
H       -0.4598262727   -1.2289671238   -0.6048092336
O       -1.8400074109    0.2586821973   -0.1859928766
H       -2.5470200318   -0.0484699214    0.4216573899
