12   
Generated by ForceBalance from qchem.out: Frame 12 of 12
C        1.8259810359   -0.2056110641   -0.1890515023
C        0.5413231913    0.5495216245    0.1469785195
H        2.0983585064   -0.8994941684    0.6090356715
H        2.6621326877    0.4803890060   -0.3335078223
H        1.6982912741   -0.7825284644   -1.1062610567
H        0.6932451586    1.1889556592    1.0201896575
C       -0.6538484292   -0.3855341345    0.3630550085
H        0.2906441826    1.2057105607   -0.6898462439
H       -0.8480275288   -0.5452257402    1.4286871082
H       -0.4609032121   -1.3596623805   -0.0872939493
O       -1.8535987257    0.0707213822   -0.3065925464
H       -2.0509340559    0.9563897705    0.0741044024
