12   
Generated by ForceBalance from qchem.out: Frame 9 of 9
C        1.8358252956   -0.0895352971   -0.2376952635
C        0.5357830873    0.4750526928    0.3313436407
H        2.1204139317   -1.0117028890    0.2728500964
H        2.6578224076    0.6194397762   -0.1269297311
H        1.7262285320   -0.3173284668   -1.2995475146
H        0.6733873458    0.7721943745    1.3730013700
C       -0.6397759815   -0.5047540508    0.2054481488
H        0.2798630414    1.3908435022   -0.2092471315
H       -0.9050696456   -0.9453526653    1.1660789408
H       -0.3674446861   -1.3228621354   -0.4713754513
O       -1.8578825366    0.1142145735   -0.2709639242
H       -1.5884709868    0.6840811196   -1.0250692564
