12   
Generated by ForceBalance from qchem.out: Frame 8 of 8
C        1.6600516076   -0.4480776271   -0.1250857363
C        0.6043706259    0.5400448235    0.3619109294
H        1.2793664393   -1.4695331937   -0.0721244976
H        2.5661055289   -0.3923486483    0.4806952675
H        1.9352520118   -0.2405468308   -1.1609451126
H        0.3727072860    0.3801012788    1.4163342020
C       -0.6997257569    0.4383653999   -0.4141098375
H        0.9953331155    1.5574617479    0.2716850566
H       -0.5151875561    0.1278582542   -1.4475036930
H       -1.2182543445    1.4027804802   -0.4385702750
O       -1.5281604122   -0.5329872320    0.2748628400
H       -2.2499356969   -0.7751294800   -0.3481352341
