12   
Generated by ForceBalance from qchem.out: Frame 7 of 7
C        1.8590983032   -0.1195639274   -0.1811999372
C        0.5194084963    0.4831970146    0.2369816397
H        2.1241777056   -0.9709716504    0.4490742797
H        2.6629836790    0.6139944010   -0.1045802353
H        1.8171415494   -0.4693193034   -1.2140801569
H        0.5755925254    0.9097294160    1.2404226587
C       -0.6259490827   -0.5263101855    0.1519274601
H        0.2913915763    1.3155058657   -0.4366128177
H       -0.7681244671   -1.0564009211    1.0935788882
H       -0.3985087308   -1.2711840508   -0.6197725942
O       -1.9043065344    0.0829819110   -0.1411731275
H       -1.7324220589    0.7220606375   -0.8678289269
