12   
Generated by ForceBalance from qchem.out: Frame 9 of 9
C        1.7178469602   -0.3729832393   -0.1551725189
C        0.5814841384    0.4692204801    0.4197268951
H        1.4167722054   -1.4185862188   -0.2416009117
H        2.6047669134   -0.3284571709    0.4793048938
H        1.9993585005   -0.0201919920   -1.1492025979
H        0.3369890608    0.1460678004    1.4324340281
C       -0.7035848746    0.3857948599   -0.4081560265
H        0.9088242329    1.5099673296    0.4881052059
H       -0.5093236209   -0.0433419424   -1.3956215730
H       -1.1288145538    1.3809683864   -0.5595817062
O       -1.6664228205   -0.4547396065    0.2859896093
H       -2.5280694617    0.0125404254    0.2448253575
