12   
Generated by ForceBalance from qchem.out: Frame 12 of 12
C        1.4816793442   -0.5412485766    0.1535368580
C        0.6516704973    0.6765046549   -0.2380332422
H        1.5153116387   -0.6557402319    1.2392315956
H        2.5076555324   -0.4471740845   -0.2059627285
H        1.0473480654   -1.4458856500   -0.2694602341
H        1.0932522779    1.5895967391    0.1719880016
C       -0.7828284189    0.5822573342    0.2430351802
H        0.6421885668    0.7870128940   -1.3249683029
H       -1.3501265060    1.4732502214   -0.0469664224
H       -0.8087898842    0.5026323425    1.3352958526
O       -1.3667859940   -0.5989950088   -0.3588548440
H       -2.1939346777   -0.7835178521    0.1396745221
