12   
Generated by ForceBalance from qchem.out: Frame 8 of 8
C        1.6935361643   -0.3976375158   -0.1550195474
C        0.5899851580    0.5094440561    0.3866536422
H        1.3733896864   -1.4420796171   -0.1743869313
H        2.5943447576   -0.3392632629    0.4582759224
H        1.9626431128   -0.1129908358   -1.1738680122
H        0.3522209891    0.2632770715    1.4231138313
C       -0.7114153947    0.4302933755   -0.4196480904
H        0.9536890847    1.5402751294    0.3875346240
H       -0.5329128809    0.0218575596   -1.4194108929
H       -1.1522149934    1.4197515545   -0.5405057497
O       -1.7430939041   -0.3254307292    0.2624029543
H       -1.4875659279   -1.2713562806    0.1753765225
