12   
Generated by ForceBalance from qchem.out: Frame 6 of 6
C        1.4838049978   -0.5227435750    0.1217776256
C        0.6310272552    0.7000500039   -0.2167468633
H        1.3994892561   -0.7882708871    1.1778227803
H        2.5347060886   -0.3229680560   -0.0918802311
H        1.2065423687   -1.3961862541   -0.4714442927
H        1.0567800170    1.5911758949    0.2509909701
C       -0.8252836516    0.5882218705    0.2286288762
H        0.6683422806    0.8653449184   -1.2971421832
H       -1.4320303611    1.3594049651   -0.2495469410
H       -0.8802908645    0.7400907654    1.3120275125
O       -1.4518070953   -0.6821942578   -0.0667284754
H       -0.7333469342   -1.3111810606   -0.2855118167
