12   
Generated by ForceBalance from qchem.out: Frame 8 of 8
C        1.4484741203   -0.5627801978   -0.0560102210
C        0.6626833881    0.7186470154    0.2090851328
H        1.0482107362   -1.3969041796    0.5176652526
H        2.4957296017   -0.4314263304    0.2209353599
H        1.4056316876   -0.8405218048   -1.1102322726
H        0.7208407581    0.9468145445    1.2780720118
C       -0.8078972710    0.6283114034   -0.2117374209
H        1.1210436950    1.5658303721   -0.3073578552
H       -0.9115210481    0.8727416201   -1.2693770949
H       -1.4183673720    1.3374381365    0.3564498256
O       -1.3605214677   -0.7051335091   -0.1226143315
H       -1.2780394206   -0.9711374701    0.8216608028
