12   
Generated by ForceBalance from qchem.out: Frame 8 of 8
C        1.8839807347   -0.1413521256   -0.1263683075
C        0.5354913112    0.5326838740    0.1193328610
H        2.1155007050   -0.8659105710    0.6573914127
H        2.6922508658    0.5909563315   -0.1519162888
H        1.8766122575   -0.6705363179   -1.0805226408
H        0.5653033823    1.1312405587    1.0338817365
C       -0.6148893245   -0.4689007446    0.1783728406
H        0.3230070612    1.2173990626   -0.7051315703
H       -0.7215958149   -0.8930387443    1.1824744308
H       -0.4317192043   -1.2922817979   -0.5128473922
O       -1.8680485386    0.0942555353   -0.2760885085
H       -2.0535695341    0.8520155144    0.3238670483
