12   
Generated by ForceBalance from qchem.out: Frame 8 of 8
C        1.8458918148   -0.1473078513   -0.2217699260
C        0.5443565787    0.4896424960    0.2596125271
H        2.1269965208   -0.9998553802    0.4005570555
H        2.6687018125    0.5689828238   -0.1942463229
H        1.7409283313   -0.5021245429   -1.2484876391
H        0.6700378546    0.9107065858    1.2589563036
C       -0.6343949481   -0.4806836732    0.2355418867
H        0.2813304971    1.3186416232   -0.4002499020
H       -0.8801947767   -0.8353262114    1.2411268816
H       -0.3980325919   -1.3576414193   -0.3774566465
O       -1.7621550970    0.2202749796   -0.3468857273
H       -2.5600170798   -0.3152414910   -0.1360996672
