12   
Generated by ForceBalance from qchem.out: Frame 12 of 12
C        1.4528744677   -0.5410207824   -0.1012699375
C        0.6558122501    0.7444216257    0.1198085931
H        1.2358266646   -1.2879899063    0.6645950967
H        2.5222747840   -0.3344091146   -0.0420240163
H        1.2537346592   -0.9802963215   -1.0813766165
H        0.8401878264    1.0818169574    1.1430479315
C       -0.8572150842    0.6114254229   -0.1108971911
H        1.0308057378    1.5315641882   -0.5378265165
H       -1.0786004905    0.8410550494   -1.1582225183
H       -1.4035611702    1.3250638273    0.5078772898
O       -1.4179785079   -0.6940770693    0.1649780242
H       -0.6705517519   -1.3240214191    0.2235024595
