12   
Generated by ForceBalance from qchem.out: Frame 8 of 8
C        1.8866505722   -0.1294528338    0.0855362272
C        0.5230037533    0.5341265519   -0.0957362222
H        1.9297742728   -0.6751328935    1.0301989137
H        2.6877678074    0.6111047381    0.0891460322
H        2.0931152728   -0.8385187868   -0.7191877111
H        0.3439222225    1.2310337536    0.7265588879
C       -0.6144748643   -0.4774452959   -0.1053504654
H        0.4917390713    1.1202120124   -1.0161425651
H       -0.4606900594   -1.2256070490    0.6775048729
H       -0.6583501653   -1.0054585444   -1.0602370833
O       -1.8949515308    0.1818186530    0.0749438499
H       -2.1737257355   -0.0040803834    0.9968294809
