12   
Generated by ForceBalance from qchem.out: Frame 8 of 8
C        1.7002901608   -0.4244516554    0.0845031365
C        0.5852886543    0.5223201301   -0.3548132476
H        2.0028176633   -0.2168176225    1.1127388061
H        2.5821531926   -0.3242747449   -0.5506232092
H        1.3713828988   -1.4648526899    0.0348319940
H        0.9513470884    1.5503974084   -0.2907334385
C       -0.6904435014    0.3851021680    0.4811457008
H        0.3123363296    0.3486599615   -1.3966994689
H       -1.1116527844    1.3679310450    0.7003599896
H       -0.4889971369   -0.1065604135    1.4363179989
O       -1.7268592363   -0.3214229964   -0.2539053668
H       -1.7763987952   -1.2255390609    0.1250183661
