12   
Generated by ForceBalance from qchem.out: Frame 8 of 8
C        1.8707693173   -0.1039792126    0.1416923663
C        0.5160335814    0.5051502528   -0.2137066253
H        1.8576634020   -0.4978989913    1.1590101445
H        2.6663445266    0.6395026391    0.0752242050
H        2.1240768008   -0.9245714196   -0.5326122350
H        0.3070446023    1.3042190037    0.5056045143
C       -0.6179246021   -0.5160894342   -0.1385315005
H        0.5429089110    0.9739215799   -1.1998186506
H       -0.3739864875   -1.2724882308    0.6147765592
H       -0.7538412424   -1.0278810834   -1.0931068109
O       -1.8993600544    0.0608660153    0.2153950162
H       -1.7119051999    0.9571749559    0.5675867748
