12   
Generated by ForceBalance from qchem.out: Frame 8 of 8
C        1.6356655677   -0.4311279162    0.1968932820
C        0.5923974466    0.5135570030   -0.3944724575
H        1.8837456738   -0.1326998033    1.2165541381
H        2.5562485882   -0.4276463798   -0.3891100209
H        1.2559115495   -1.4539964529    0.2287621860
H        0.9846468325    1.5343545750   -0.3709015175
C       -0.7383480734    0.4809693372    0.3558216260
H        0.4145499665    0.2868008361   -1.4501680675
H       -1.2192642955    1.4637976116    0.3073008623
H       -0.5931409286    0.2294719901    1.4071577141
O       -1.6646256522   -0.5053134901   -0.1643775461
H       -1.4625381375   -0.5876035052   -1.1217785166
