12   
Generated by ForceBalance from qchem.out: Frame 12 of 12
C        1.4133245223   -0.5961076824   -0.0551320473
C        0.6982669793    0.7499448665    0.0281734554
H        1.1355205637   -1.2346210056    0.7808519248
H        2.4939742161   -0.4436931008   -0.0345486427
H        1.1604192747   -1.1257558641   -0.9738394020
H        1.0004553531    1.2419427259    0.9558084043
C       -0.8352331786    0.6468338727   -0.0119613165
H        1.0306974993    1.4020886426   -0.7828391223
H       -1.2000907238    0.9574616683   -0.9949622417
H       -1.2926847456    1.3062942965    0.7314259515
O       -1.2477781074   -0.7224498285    0.2328999665
H       -2.0898893922   -0.8447043283   -0.2572565604
