12   
Generated by ForceBalance from qchem.out: Frame 8 of 8
C        1.4937571621   -0.5443186918   -0.0653050176
C        0.6531917918    0.6825689097    0.2720626854
H        1.0231522109   -1.4428620362    0.3290927452
H        2.4947818857   -0.4566196765    0.3600108864
H        1.5953873206   -0.6644639165   -1.1459075409
H        0.5917923542    0.7859429274    1.3589338428
C       -0.7556778573    0.5969223845   -0.2979578388
H        1.1250860769    1.5941956185   -0.1063805985
H       -0.7292445406    0.7376966523   -1.3823026999
H       -1.3940490362    1.3772582077    0.1231150678
O       -1.3185942485   -0.7209517652   -0.0585339656
H       -2.1272263588   -0.5893435204    0.4813809065
