12   
Generated by ForceBalance from qchem.out: Frame 8 of 8
C        1.8783955816   -0.1113745522   -0.1243803219
C        0.5158004082    0.5128564068    0.1699387744
H        2.1269146816   -0.8823209945    0.6078900559
H        2.6692941345    0.6395935106   -0.0992066686
H        1.8798063945   -0.5735464107   -1.1125287515
H        0.5303166204    1.0485645092    1.1222322820
C       -0.6120947901   -0.5158284105    0.1589832612
H        0.3038106774    1.2512137587   -0.6094949177
H       -0.7249097610   -0.9763255296    1.1450836278
H       -0.3880477809   -1.3094474110   -0.5573451729
O       -1.8884418261    0.0365551178   -0.2520343987
H       -1.7970258860    1.0125616577   -0.2025107404
