12   
Generated by ForceBalance from qchem.out: Frame 8 of 8
C        1.8152585640   -0.2077162691    0.2402477604
C        0.5730590475    0.5582613764   -0.2099547442
H        1.6239577159   -0.7248170218    1.1819946622
H        2.6636169915    0.4626340082    0.3881004483
H        2.1054674363   -0.9552786456   -0.5007516348
H        0.3122699594    1.3004774900    0.5473645648
C       -0.6496421611   -0.3527277275   -0.4021812845
H        0.7912174755    1.1064952046   -1.1299724118
H       -0.4138483960   -1.3764199177   -0.1097576103
H       -0.9734785479   -0.3756157035   -1.4469748372
O       -1.7589674974    0.0124703032    0.4556344938
H       -2.1470678682    0.8244508016    0.0593332748
