12   
Generated by ForceBalance from qchem.out: Frame 12 of 12
C        1.4479143434   -0.5518432174   -0.0683317124
C        0.6655008984    0.7559671452    0.0515685028
H        1.2641671552   -1.2135911657    0.7806596489
H        2.5187924728   -0.3448633181   -0.0787284038
H        1.2057744009   -1.0888014394   -0.9876112865
H        0.9307875811    1.2187209072    1.0049934304
C       -0.8701713429    0.6172290469   -0.0401528824
H        0.9978417161    1.4460829042   -0.7262927635
H       -1.2102502153    0.9665979083   -1.0181053491
H       -1.3493672366    1.2414867580    0.7171962550
O       -1.3983940305   -0.7234483594    0.1117501987
H       -0.6396713147   -1.3256980413    0.2522429870
