12   
Generated by ForceBalance from qchem.out: Frame 8 of 8
C        1.8809731524   -0.1569560187   -0.1123602406
C        0.5297525883    0.5226425750    0.0977037326
H        2.1011817447   -0.8618541712    0.6925086739
H        2.6883728079    0.5762066710   -0.1416806570
H        1.8947646151   -0.7092985210   -1.0539549166
H        0.5367829815    1.1307146690    1.0045620867
C       -0.6093869927   -0.4784283629    0.1680601433
H        0.3208001424    1.1965429962   -0.7354102217
H       -0.6052931469   -1.0203446083    1.1196844075
H       -0.4980573691   -1.2136986414   -0.6352509201
O       -1.8558359058    0.2446613762    0.0083070880
H       -2.4847979621   -0.3765590948   -0.4195158839
