12   
Generated by ForceBalance from qchem.out: Frame 8 of 8
C        1.9064515181   -0.1257063620    0.0257316790
C        0.5260570125    0.5213882273   -0.0618109863
H        2.0016001452   -0.7098738475    0.9429911637
H        2.6949199987    0.6282260477    0.0246048764
H        2.0856117123   -0.7961564596   -0.8177390622
H        0.3728759442    1.1886375652    0.7888068994
C       -0.5938250698   -0.5067731725   -0.0387687869
H        0.4436449347    1.1336677392   -0.9632866569
H       -0.4294156321   -1.2145369355    0.7771244483
H       -0.6268305141   -1.0791275946   -0.9697965964
O       -1.8706019245    0.1282601910    0.2300227151
H       -2.3568135213    0.1545890591   -0.6220496978
