12   
Generated by ForceBalance from qchem.out: Frame 12 of 12
C        1.8289285501   -0.2175090933    0.1670662948
C        0.5437762318    0.5630829993   -0.1016904531
H        1.7047104986   -0.8666411830    1.0352674638
H        2.6660728546    0.4542548020    0.3634613546
H        2.0985244615   -0.8449834558   -0.6852240007
H        0.2928158222    1.1501229642    0.7843999707
C       -0.6531342344   -0.3516248449   -0.3847701318
H        0.6931485822    1.2707439909   -0.9211187696
H       -0.4542560904   -1.3552564861   -0.0068804080
H       -0.8535271765   -0.4369338794   -1.4570754059
O       -1.8470665606    0.0552300688    0.3274817379
H       -2.1860495804    0.8489172970   -0.1444301614
