12   
Generated by ForceBalance from qchem.out: Frame 8 of 8
C        1.8570246446   -0.1530576687   -0.1738573967
C        0.5343258392    0.5195087170    0.1874242782
H        2.1231002281   -0.9269335581    0.5498185021
H        2.6722522431    0.5717687084   -0.1987781693
H        1.7936238498   -0.6221516389   -1.1574362211
H        0.6187738950    1.0580729558    1.1333127318
C       -0.6226871832   -0.4696396274    0.2468712831
H        0.2818721039    1.2577213980   -0.5760266823
H       -0.7253077631   -0.9137119350    1.2422313729
H       -0.4420946057   -1.2832845651   -0.4626517591
O       -1.8404886230    0.2299403510   -0.1172999103
H       -2.4273705708   -0.4360340792   -0.5376810128
