12   
Generated by ForceBalance from qchem.out: Frame 11 of 11
C        1.4422826613   -0.5564346259    0.0414001406
C        0.6605467775    0.7520820477   -0.0692813580
H        1.2740348455   -1.0544201553    0.9991479033
H        2.5120658244   -0.3590359860   -0.0376285909
H        1.1832355237   -1.2472318907   -0.7628788832
H        1.0307492089    1.4573599902    0.6773491755
C       -0.8704592624    0.6215500047    0.0943483972
H        0.8836901720    1.1918501351   -1.0439977867
H       -1.3874024165    1.2139222462   -0.6618536044
H       -1.1623688298    1.0107631649    1.0742515709
O       -1.4085829196   -0.7193130471   -0.0068969933
H       -0.6577242797   -1.3426051154    0.0739194905
