12   
Generated by ForceBalance from qchem.out: Frame 12 of 12
C        1.4343782645   -0.5819701663   -0.0162396120
C        0.6843134786    0.7471985531   -0.0679222435
H        1.3222734167   -1.0733332017    0.9527496641
H        2.5010720770   -0.4195275762   -0.1775861876
H        1.0659249504   -1.2615400315   -0.7826729074
H        1.0769246177    1.4274663873    0.6916447583
C       -0.8430667654    0.6084214203    0.1104524691
H        0.8898212505    1.2149039947   -1.0333836153
H       -1.3760941263    1.1845886151   -0.6446986411
H       -1.1487373853    0.9893227048    1.0895338130
O       -1.3354651979   -0.7440468533   -0.0475519788
H       -1.0810150723   -1.2197595801    0.7737899584
