12   
Generated by ForceBalance from qchem.out: Frame 8 of 8
C        1.9004128098   -0.1306154984    0.0537843149
C        0.5224449249    0.5171862928   -0.0640114829
H        2.0031481661   -0.6640167241    1.0009383516
H        2.6929340099    0.6172159684    0.0030178165
H        2.0648444394   -0.8475616138   -0.7530950794
H        0.3779012407    1.2299766005    0.7532940883
C       -0.5986247975   -0.5092651720   -0.0243244054
H        0.4397029537    1.0825258964   -0.9943454350
H       -0.5350879882   -1.1155021457    0.8856442225
H       -0.5292309652   -1.1837894239   -0.8786039413
O       -1.9036825872    0.1051451969   -0.1359633861
H       -2.0796995205    0.5185546976    0.7385896153
