12   
Generated by ForceBalance from qchem.out: Frame 8 of 8
C        1.8923124586   -0.1421936157   -0.0277986274
C        0.5190784265    0.5226742885    0.0252181760
H        2.0383822961   -0.8108517394    0.8231482475
H        2.6888879130    0.6029199373   -0.0071482027
H        2.0089606648   -0.7307512728   -0.9401706989
H        0.4262659221    1.1363102937    0.9235551694
C       -0.6062381793   -0.4912401608    0.0222459657
H        0.3836327641    1.1874755611   -0.8303222570
H       -0.5214225053   -1.1587701416    0.8870643956
H       -0.5637726114   -1.1062031289   -0.8837142899
O       -1.8481250562    0.2494928129    0.0743436929
H       -2.5685719274   -0.4201811230    0.0718289414
