12   
Generated by ForceBalance from qchem.out: Frame 8 of 8
C        1.6798652435   -0.4235048949   -0.1176636870
C        0.6086303018    0.5354187449    0.3946022526
H        1.3198902354   -1.4534284035   -0.0888924784
H        2.5870838597   -0.3650557120    0.4861942704
H        1.9468759156   -0.1870514041   -1.1493272552
H        0.3772355529    0.3435001203    1.4432351933
C       -0.6941427531    0.4416435809   -0.3921841366
H        0.9902064158    1.5587938932    0.3314480947
H       -0.5088820033    0.1593335737   -1.4328616966
H       -1.2034779952    1.4088475244   -0.3953735060
O       -1.5509137652   -0.5557051169    0.2293112213
H       -2.4489426563   -0.1636731201    0.2748850595
