12   
Generated by ForceBalance from qchem.out: Frame 8 of 8
C        1.8552909570   -0.2004538592   -0.1605638042
C        0.5483566837    0.5422782004    0.1109357280
H        2.1236981356   -0.8543186284    0.6723476321
H        2.6805387321    0.4968092588   -0.3134083227
H        1.7675339255   -0.8191235585   -1.0557003978
H        0.6557975510    1.2190815842    0.9606844673
C       -0.6253298538   -0.4066119031    0.3410920099
H        0.2971859109    1.1603372062   -0.7533457156
H       -0.7286189805   -0.6655196651    1.3977202664
H       -0.4609480047   -1.3368945475   -0.2094710462
O       -1.8654096188    0.2111754715   -0.0976211587
H       -2.2332297322   -0.3683973831   -0.7976609487
