12   
Generated by ForceBalance from qchem.out: Frame 7 of 7
C        1.5234644174   -0.5191416724    0.1148288955
C        0.6437480454    0.6545002237   -0.3037629492
H        1.6442045044   -0.5455754126    1.1998034740
H        2.5158263611   -0.4446225161   -0.3328449074
H        1.0724739278   -1.4599647265   -0.1988522510
H        1.0937504017    1.5994221336    0.0155510528
C       -0.7522939042    0.5635537727    0.2808013845
H        0.5570210796    0.6891333572   -1.3919596003
H       -1.3503172311    1.4245883077   -0.0319708439
H       -0.7154880692    0.5559362834    1.3757424298
O       -1.3533546508   -0.6684786730   -0.1947143510
H       -2.3207189686   -0.5053843791   -0.2441627954
