12   
Generated by ForceBalance from qchem.out: Frame 9 of 9
C        1.4082732226   -0.5998070143   -0.0002812308
C        0.6944827976    0.7496255613   -0.0201971171
H        1.1625464613   -1.1623772062    0.8992518842
H        2.4887327439   -0.4475371280   -0.0296736818
H        1.1225483460   -1.2085815565   -0.8567466470
H        1.0472886139    1.3541798138    0.8182975731
C       -0.8426533327    0.6474109680    0.0437866123
H        0.9832027522    1.2900949994   -0.9249095725
H       -1.2909058461    1.1294126222   -0.8277698013
H       -1.2257384382    1.1586214028    0.9308663747
O       -1.2687813745   -0.7400414031    0.1098089232
H       -2.0120136848   -0.8337667964   -0.5238129474
