12   
Generated by ForceBalance from qchem.out: Frame 10 of 10
C        1.5337384372   -0.4895057072    0.1683148515
C        0.6190660982    0.6384004720   -0.3041279165
H        1.6451644823   -0.4633820450    1.2537816159
H        2.5259139858   -0.4025532792   -0.2769788670
H        1.1324583225   -1.4684352502   -0.0962080060
H        1.0523948365    1.6062309321   -0.0370046420
C       -0.7802826326    0.5566935045    0.2841156822
H        0.5403897858    0.6276149519   -1.3961418730
H       -1.3838553787    1.3999969183   -0.0654453193
H       -0.7398579625    0.5956105142    1.3750333514
O       -1.4675487042   -0.6735049524   -0.0565911638
H       -0.9631990316   -1.0784459106   -0.7952548485
