12   
Generated by ForceBalance from qchem.out: Frame 8 of 8
C        1.4669852308   -0.5532182346    0.1444973225
C        0.6620164524    0.6903281675   -0.2173759876
H        1.4249909024   -0.7450658176    1.2184018854
H        2.5141811647   -0.4345045877   -0.1380915870
H        1.0661862140   -1.4290110711   -0.3627000263
H        1.0874675156    1.5806256823    0.2548405345
C       -0.8021951919    0.5790609091    0.1922684549
H        0.7220250343    0.8560735026   -1.2979792606
H       -1.3935264318    1.3975836715   -0.2296617834
H       -0.8896826407    0.6280359274    1.2787245266
O       -1.3823839329   -0.7021663600   -0.1496910770
H       -1.5295470553   -0.6811177612   -1.1225853131
