12   
Generated by ForceBalance from qchem.out: Frame 8 of 8
C        1.6658181760   -0.4139702435    0.1297308271
C        0.5813197248    0.4928536779   -0.4500738718
H        1.9552907139   -0.0763185385    1.1262772373
H        2.5580322893   -0.4173502716   -0.4984644464
H        1.3218655373   -1.4476008229    0.2169090442
H        0.9704183142    1.5137679911   -0.4976896902
C       -0.7049205940    0.4902935414    0.3720159382
H        0.3301536599    0.2079874670   -1.4742705159
H       -1.2540543156    1.4229272315    0.2417065563
H       -0.4790731212    0.3761746124    1.4380473562
O       -1.6390188614   -0.5308895658   -0.0558039196
H       -1.1060576775   -1.3486596971   -0.1783818695
