12   
Generated by ForceBalance from qchem.out: Frame 12 of 12
C        1.8231220709   -0.1470571012   -0.2457514039
C        0.5486645401    0.4671800592    0.3287119284
H        2.1006695924   -1.0609444519    0.2842500202
H        2.6622787157    0.5466890906   -0.1726032250
H        1.6842825370   -0.3994434888   -1.2983827701
H        0.7064856826    0.7848399688    1.3612871853
C       -0.6552703122   -0.4688108600    0.2367487682
H        0.2921051209    1.3633257956   -0.2395606667
H       -0.8818294495   -0.9203260584    1.2065464931
H       -0.4566025815   -1.2829566360   -0.4685762198
O       -1.7875737416    0.3014733898   -0.2444572078
H       -2.5922818947   -0.1091475226    0.1421528162
