12   
Generated by ForceBalance from qchem.out: Frame 9 of 9
C        1.5702830408   -0.4844423540   -0.1517172920
C        0.6156864587    0.6032176880    0.3312854344
H        1.1562204150   -1.4726781994    0.0525619018
H        2.5394791448   -0.4108113703    0.3444105230
H        1.7351371235   -0.4011354321   -1.2276718088
H        0.4774838468    0.5493054806    1.4125846748
C       -0.7518429500    0.5036207694   -0.3221823716
H        1.0412445510    1.5863416117    0.1069179618
H       -0.6617936205    0.3374765251   -1.4000976284
H       -1.3102817127    1.4313862688   -0.1709946525
O       -1.4714437714   -0.6089110413    0.2760102089
H       -2.3808360826   -0.2891352140    0.4581038341
