12   
Generated by ForceBalance from qchem.out: Frame 8 of 8
C        1.9018468854   -0.1277165928   -0.0318264755
C        0.5293064118    0.5329189166    0.0777609003
H        2.0510016467   -0.8528207885    0.7706905070
H        2.7012480708    0.6116582548    0.0330444274
H        2.0087673584   -0.6543921302   -0.9823004961
H        0.4365609003    1.0760145563    1.0203475643
C       -0.6024078337   -0.4790785625   -0.0063716953
H        0.4071833649    1.2673571119   -0.7238666395
H       -0.5554366611   -1.1749585825    0.8321611258
H       -0.5299410166   -1.0636445695   -0.9297499273
O       -1.9022277368    0.1477424431    0.0975415451
H       -2.0580994265    0.5841918986   -0.7696021850
