12   
Generated by ForceBalance from qchem.out: Frame 8 of 8
C        1.8930650415   -0.1307806620    0.0300363663
C        0.5113626029    0.5185761371   -0.0003191965
H        2.0027543396   -0.7792061449    0.9018987950
H        2.6806552471    0.6228174067    0.0734181924
H        2.0608985819   -0.7385027062   -0.8615699872
H        0.3608228819    1.1302581844    0.8921143999
C       -0.6026738420   -0.5101405138   -0.0717400391
H        0.4193848377    1.1853979386   -0.8600577663
H       -0.5416367518   -1.1956994382    0.7779322483
H       -0.5163368384   -1.1064917960   -0.9842563674
O       -1.8888860818    0.1628202692   -0.0979276774
H       -2.3856188274   -0.1467128704    0.6889925109
