12   
Generated by ForceBalance from qchem.out: Frame 12 of 12
C        1.4366170550   -0.5567121023    0.0454458269
C        0.6681458562    0.7615325150   -0.0352697517
H        1.2481219754   -1.0859413871    0.9830421125
H        2.5095510951   -0.3672319164   -0.0045553489
H        1.1794876246   -1.2152185125   -0.7849820261
H        1.0024239930    1.4283119069    0.7621536184
C       -0.8692730448    0.6261982267    0.0415417979
H        0.9401927144    1.2464699241   -0.9755192406
H       -1.3524864090    1.2419817780   -0.7166874801
H       -1.2137390396    0.9764374573    1.0201497748
O       -1.3909726602   -0.7085445208   -0.1609275781
H       -0.7062880392   -1.3318002737    0.1612913937
