12   
Generated by ForceBalance from qchem.out: Frame 12 of 12
C        1.7737282560   -0.3085909921   -0.1647468940
C        0.5658318716    0.3876071371    0.4580220214
H        1.5469969090   -1.3556570864   -0.3732922384
H        2.6361590225   -0.2764470185    0.5032865702
H        2.0625350529    0.1662247601   -1.1047417766
H        0.3025823384   -0.0973053227    1.3993936510
C       -0.6795433406    0.3373100394   -0.4314752115
H        0.8181138089    1.4230968093    0.6967656197
H       -0.4746971135   -0.2015742505   -1.3625087080
H       -1.0111942328    1.3441055248   -0.6995031803
O       -1.7294653921   -0.3535510844    0.2964161329
H       -2.5813607582    0.0228992610   -0.0164769089
