12   
Generated by ForceBalance from qchem.out: Frame 7 of 7
C        1.7073744423   -0.3943930221    0.1264785390
C        0.5710735037    0.4789514237   -0.4028825001
H        2.0162946163   -0.0656119089    1.1202781296
H        2.5798878470   -0.3520178753   -0.5276310288
H        1.4011703748   -1.4404522135    0.2031405889
H        0.9200017387    1.5133556973   -0.4569449397
C       -0.6957140769    0.4115439027    0.4583010108
H        0.2982424224    0.1938652767   -1.4210571930
H       -1.1479447749    1.3966526083    0.5699209551
H       -0.4657530174    0.0338348449    1.4603858656
O       -1.7454966886   -0.3799348008   -0.1494759731
H       -1.3690922160   -1.2825265417   -0.2600657426
