12   
Generated by ForceBalance from qchem.out: Frame 8 of 8
C        1.6308360227   -0.4580459335   -0.0823518151
C        0.6114054792    0.5831058070    0.3687660526
H        1.2165619372   -1.4624911992    0.0147494546
H        2.5433148326   -0.4055693435    0.5138923647
H        1.9020487303   -0.3021769900   -1.1282367901
H        0.3790764008    0.4668636408    1.4291235287
C       -0.6883746491    0.4929420006   -0.4146660327
H        1.0325164408    1.5851526040    0.2383826278
H       -0.4915121859    0.3713349520   -1.4831606453
H       -1.2775021679    1.4044318704   -0.2853974631
O       -1.4503860948   -0.6603604075    0.0377770159
H       -2.3045563946   -0.3160682152    0.3744950341
