12   
Generated by ForceBalance from qchem.out: Frame 12 of 12
C        1.7792783561   -0.3076875961   -0.1503853861
C        0.5658196764    0.3993881520    0.4490175264
H        1.5602950502   -1.3625148705   -0.3251899524
H        2.6411793542   -0.2476705906    0.5163873971
H        2.0650801362    0.1384968926   -1.1052176938
H        0.3045364021   -0.0592837344    1.4039141695
C       -0.6783443731    0.3123692047   -0.4420189846
H        0.8116982516    1.4432065295    0.6571896164
H       -0.4670768049   -0.2632678303   -1.3483132665
H       -1.0082836897    1.3058783098   -0.7548353060
O       -1.7420099497   -0.3611525510    0.2853945154
H       -2.5603807132    0.1598196255    0.1376117122
