12   
Generated by ForceBalance from qchem.out: Frame 8 of 8
C        1.8007357161   -0.1620459064   -0.2841513902
C        0.5744685581    0.5018954437    0.3379334638
H        2.1010008142   -1.0466748839    0.2812927023
H        2.6507774804    0.5220028219   -0.3084202005
H        1.5891009546   -0.4741421387   -1.3083825361
H        0.8114116816    0.8448893299    1.3474279217
C       -0.6538892053   -0.4119975819    0.3633454478
H        0.2990853087    1.3865030540   -0.2385063589
H       -0.9912886064   -0.5878097545    1.3883876175
H       -0.4262342710   -1.3866010655   -0.0810545536
O       -1.7097094598    0.2253452949   -0.4038788529
H       -2.5596367572   -0.0659327913   -0.0062378482
