12   
Generated by ForceBalance from qchem.out: Frame 8 of 8
C        1.7504857411   -0.3690177237   -0.1038158343
C        0.5935509176    0.4857774129    0.4079469588
H        1.4651342262   -1.4219592744   -0.1399102923
H        2.6260851746   -0.2785458945    0.5414109738
H        2.0436373945   -0.0647892297   -1.1104527902
H        0.3296024087    0.2047493638    1.4283174070
C       -0.6720642869    0.3522618920   -0.4431167136
H        0.9090819904    1.5319737871    0.4374757282
H       -0.4518677701   -0.1181731423   -1.4060001328
H       -1.1031281509    1.3353230172   -0.6478243425
O       -1.6421254430   -0.4667259901    0.2666640761
H       -2.5070358999   -0.0107753898    0.1860023396
