12   
Generated by ForceBalance from qchem.out: Frame 8 of 8
C        1.8390133093   -0.1290927098    0.2380816900
C        0.5493080626    0.5179139737   -0.2638097330
H        1.7178597763   -0.4901079124    1.2613487227
H        2.6684087984    0.5800187305    0.2284407786
H        2.1231228179   -0.9806682988   -0.3838533612
H        0.2825246107    1.3526599140    0.3878256834
C       -0.6406985692   -0.4516625205   -0.2767496639
H        0.7009885982    0.9409863010   -1.2587070376
H       -0.3981424353   -1.3654009498    0.2739660055
H       -0.9014365114   -0.7442761583   -1.2942195055
O       -1.8423885232    0.1481369433    0.2717509653
H       -1.8260648799   -0.0462465784    1.2342192916
