12   
Generated by ForceBalance from qchem.out: Frame 8 of 8
C        1.8792866160   -0.1336886748   -0.1102544166
C        0.5134607032    0.5073346236    0.1248840293
H        2.0909429958   -0.8954478526    0.6426984212
H        2.6754448164    0.6105685696   -0.0658825661
H        1.9159559323   -0.6108815325   -1.0907715990
H        0.4977929322    1.0480519832    1.0747520440
C       -0.6155478723   -0.5119899995    0.0978290366
H        0.3275919499    1.2406265144   -0.6663494852
H       -0.6103878874   -1.1175359419    1.0079780081
H       -0.4863882202   -1.1841721945   -0.7551777849
O       -1.9260981079    0.0954017252   -0.0283393322
H       -1.7800588990    1.0649680099   -0.0691731476
