12   
Generated by ForceBalance from qchem.out: Frame 6 of 6
C        1.4817320789   -0.5210541173   -0.0968687144
C        0.6415988037    0.7144625152    0.2242787651
H        1.2069495091   -1.3723726054    0.5285259629
H        2.5378212124   -0.3227296706    0.0909780961
H        1.3790829628   -0.8150438856   -1.1441799687
H        0.7033779759    0.9099151661    1.2980808227
C       -0.8249636877    0.5930734633   -0.1858633091
H        1.0596733849    1.5896384248   -0.2794829140
H       -0.9031112737    0.7281986999   -1.2710034674
H       -1.4280832637    1.3652808071    0.2928198727
O       -1.4432339860   -0.6663749165    0.1624869478
H       -0.7322985860   -1.3413917521    0.1451649968
