12   
Generated by ForceBalance from qchem.out: Frame 6 of 6
C        1.5768491697   -0.4667516761    0.1506261739
C        0.5942593292    0.5941379791   -0.3433484395
H        1.7650597250   -0.3484181267    1.2192518255
H        2.5314526671   -0.3908710733   -0.3721444548
H        1.1998630343   -1.4796484401   -0.0084356880
H        1.0264997064    1.5843572049   -0.1738689477
C       -0.7576877059    0.5304937742    0.3526429386
H        0.4330550593    0.5020912925   -1.4206094743
H       -1.3448771330    1.4251399482    0.1412200474
H       -0.6185408642    0.4629407444    1.4374513854
O       -1.5753312646   -0.5750388620   -0.1024206044
H       -0.9524151903   -1.2866390575   -0.3678490527
