12   
Generated by ForceBalance from qchem.out: Frame 9 of 9
C        1.4882007230   -0.5473852687    0.0897555426
C        0.6528671378    0.6790802501   -0.2641252521
H        1.5494992493   -0.6816658306    1.1717650363
H        2.5040345079   -0.4445218198   -0.2954050550
H        1.0427637699   -1.4446212937   -0.3351391441
H        1.1132481139    1.5900928801    0.1284593287
C       -0.7687043756    0.5946373395    0.2659874492
H        0.6160802844    0.7842277221   -1.3512349981
H       -1.3983446197    1.3580358355   -0.2014469492
H       -0.7799953233    0.7634108134    1.3490354993
O       -1.2747607533   -0.7329617909   -0.0164955285
H       -2.2491162430   -0.6858470927    0.1075434250
