12   
Generated by ForceBalance from qchem.out: Frame 8 of 8
C        1.8791921087   -0.1339416050    0.0908875112
C        0.5086204710    0.5195302083   -0.0714102048
H        1.9306513794   -0.6897831058    1.0284124566
H        2.6733509567    0.6137810488    0.0974353211
H        2.0824710536   -0.8308576165   -0.7247312120
H        0.3212369390    1.1855214591    0.7752505534
C       -0.6176159142   -0.5016783724   -0.1201876822
H        0.4835442535    1.1332040512   -0.9767299855
H       -0.5095249415   -1.2280216163    0.6870303216
H       -0.5965729762   -1.0466177287   -1.0702705902
O       -1.9222765337    0.0961717457    0.0744763080
H       -1.8566342328    1.0101768731   -0.2809945480
