12   
Generated by ForceBalance from qchem.out: Frame 12 of 12
C        1.4353640114   -0.5516497586    0.0799301322
C        0.6622865881    0.7525416852   -0.1050300952
H        1.2770556527   -0.9833273154    1.0719187715
H        2.5062802521   -0.3762811085   -0.0296257876
H        1.1445762676   -1.2870083945   -0.6705406032
H        1.0459754084    1.5187203920    0.5726707078
C       -0.8530949181    0.6217695759    0.1144635840
H        0.8503917009    1.1111054487   -1.1199911112
H       -1.4033262033    1.3296692163   -0.5042951760
H       -1.0864984100    0.8428051304    1.1623655885
O       -1.4007935536   -0.6753950997   -0.2124868502
H       -0.7878442021   -1.3353174779    0.1777624393
