12   
Generated by ForceBalance from qchem.out: Frame 8 of 8
C        1.8233445112   -0.1550899592    0.2435109111
C        0.5507494175    0.5019828707   -0.2862117125
H        1.6745357680   -0.5106428152    1.2646881017
H        2.6568418544    0.5492901356    0.2499619491
H        2.1155482287   -1.0100314327   -0.3703125060
H        0.2740962820    1.3353772888    0.3620220398
C       -0.6411216478   -0.4531151247   -0.3092283061
H        0.7240675137    0.9188707232   -1.2802335322
H       -0.4306041648   -1.3301414296    0.3118923602
H       -0.8582281277   -0.8080990007   -1.3219583458
O       -1.7841909409    0.2574762907    0.2305860500
H       -2.4612541298   -0.4261083002    0.4349559898
