12   
Generated by ForceBalance from qchem.out: Frame 7 of 7
C       -1.7799649426    0.2362504252    0.2481823537
C       -0.5750330104   -0.1880557726   -0.5894523285
H       -2.0742248459   -0.5577848313    0.9370201375
H       -2.6404893384    0.4675074784   -0.3818570541
H       -1.5520994603    1.1237790890    0.8425234777
H       -0.8424192724   -1.0602459515   -1.1903348887
C        0.6703448602   -0.4969048521    0.2574052637
H       -0.3116440172    0.5979971354   -1.3007743174
H        1.0353168650   -1.5075355069    0.0778538124
H        0.4392783455   -0.4124587604    1.3249243424
O        1.8001249006    0.3480557420   -0.0683995129
H        1.4997568127    1.2687391794    0.1046314721
