12   
Generated by ForceBalance from qchem.out: Frame 12 of 12
C        1.4478809772   -0.5567442878    0.0320351591
C        0.6687668789    0.7582263737    0.0173259996
H        1.1704067080   -1.1790594253    0.8843087293
H        2.5170165601   -0.3538628859    0.1056727718
H        1.2969754389   -1.1318947574   -0.8844965959
H        0.9445300641    1.3295160410    0.9059683599
C       -0.8723497332    0.6156722723   -0.0302742457
H        0.9995556094    1.3483644306   -0.8397439954
H       -1.2613079150    1.1316610908   -0.9124721467
H       -1.3226819583    1.0819362097    0.8471576284
O       -1.3861303593   -0.7389147685   -0.0549585378
H       -0.6390528855   -1.3313678357   -0.2783305282
