12   
Generated by ForceBalance from qchem.out: Frame 8 of 8
C        1.6077927569   -0.4692051212   -0.1612188951
C        0.6097801061    0.5676236308    0.3451207848
H        1.1948767376   -1.4748370032   -0.0634084168
H        2.5418152949   -0.4312553736    0.4019419994
H        1.8428223643   -0.2982457862   -1.2135754908
H        0.4184483366    0.4408686469    1.4121179432
C       -0.7297167012    0.4944430643   -0.3723721285
H        1.0323384500    1.5678862758    0.2134239959
H       -0.5980512821    0.1583913525   -1.4050674729
H       -1.2180033905    1.4740597214   -0.3971269346
O       -1.5712564883   -0.4290480499    0.3681807729
H       -2.1788433447   -0.8431875910   -0.2838880208
