12   
Generated by ForceBalance from qchem.out: Frame 8 of 8
C        1.8178150195   -0.1957860955    0.2363409615
C        0.5515394081    0.5390265406   -0.1998212612
H        1.6561674737   -0.7122238950    1.1845348306
H        2.6508947489    0.4965367368    0.3689745032
H        2.1199503557   -0.9409414036   -0.5028788268
H        0.2657020559    1.2616850083    0.5664405862
C       -0.6429746317   -0.4001977099   -0.3977959222
H        0.7411291737    1.1080965943   -1.1120887742
H       -0.4286977248   -1.3783485176    0.0406852038
H       -0.8559506734   -0.5579175478   -1.4576328736
O       -1.8368085907    0.1614398520    0.2139325274
H       -2.1336616845   -0.4818923133    0.8918458718
