12   
Generated by ForceBalance from qchem.out: Frame 8 of 8
C        1.8908731932   -0.1414392372   -0.0206554568
C        0.5180865389    0.5245844142    0.0302896698
H        2.0284947009   -0.8225632259    0.8218013832
H        2.6882983597    0.6020568750    0.0177634529
H        2.0147761397   -0.7169905270   -0.9403228005
H        0.4172092755    1.1227509754    0.9379922800
C       -0.6087623990   -0.4875689248    0.0011033465
H        0.3921199930    1.2045243225   -0.8149271575
H       -0.5283910145   -1.1649400663    0.8580467806
H       -0.5623708068   -1.0924008474   -0.9115249184
O       -1.8529437557    0.2506917953    0.0534071690
H       -2.5528303160   -0.4020971735    0.2786463180
