12   
Generated by ForceBalance from qchem.out: Frame 8 of 8
C        1.9021078108   -0.1368509076    0.0538419169
C        0.5374887246    0.5367172182   -0.0715188249
H        1.9675746530   -0.7074297382    0.9821881294
H        2.7058187328    0.6008416267    0.0560085823
H        2.0839370303   -0.8247841454   -0.7749325630
H        0.3745551326    1.2065153774    0.7754621639
C       -0.6018850076   -0.4681950025   -0.0801906674
H        0.4884606441    1.1504480218   -0.9738285763
H       -0.4680542906   -1.1929696531    0.7278226343
H       -0.6270980498   -1.0240599084   -1.0211446095
O       -1.8602702944    0.2170102451    0.1554789568
H       -2.4259655140    0.0519516401   -0.6287384211
