12   
Generated by ForceBalance from qchem.out: Frame 8 of 8
C        1.8597917160   -0.1677588172   -0.1859423853
C        0.5606433195    0.5466186499    0.1811345810
H        2.1253786155   -0.9201970648    0.5598868693
H        2.6907277287    0.5357371878   -0.2587468637
H        1.7577988893   -0.6717015943   -1.1484195936
H        0.6869464036    1.1158588186    1.1054402835
C       -0.6288873237   -0.4133928217    0.2902261634
H        0.3138712723    1.2652946928   -0.6028805755
H       -0.8494622932   -0.6749377215    1.3286499928
H       -0.4041492371   -1.3407449285   -0.2394717829
O       -1.8113274261    0.1017910103   -0.3732467627
H       -2.3029216163    0.6207124183    0.3009816138
