12   
Generated by ForceBalance from qchem.out: Frame 7 of 7
C        1.4081564477   -0.5853229380   -0.0114795196
C        0.6746054635    0.7549012365    0.0300199369
H        1.2230570098   -1.1815873134    0.8846649045
H        2.4849629980   -0.4194277031   -0.0651278812
H        1.1073681765   -1.1728701529   -0.8785606674
H        0.9849187587    1.3027673106    0.9226597569
C       -0.8685356743    0.6454144097    0.0041080928
H        1.0017949222    1.3534209031   -0.8227741739
H       -1.2770825291    1.1242538936   -0.8848495058
H       -1.2936858021    1.1524851427    0.8762152302
O       -1.3873665144   -0.7042131729   -0.0553505479
H       -0.8728916361   -1.2253338942    0.5989975741
