12   
Generated by ForceBalance from qchem.out: Frame 7 of 7
C        1.7712071834   -0.3367301686    0.1127245105
C        0.5557201211    0.4197419518   -0.4200964544
H        2.0885998185    0.0643302927    1.0770968459
H        2.6165736297   -0.2643702986   -0.5735987038
H        1.5432279829   -1.3956607149    0.2524793107
H        0.8201847490    1.4680562967   -0.5755761563
C       -0.6706832130    0.3178819111    0.5013582412
H        0.2708327398    0.0327424740   -1.4011573666
H       -1.0282787527    1.3020546634    0.8020663069
H       -0.4209278397   -0.2367531060    1.4124702012
O       -1.8150762385   -0.2896835686   -0.1448044100
H       -1.5216477932   -1.1906964398   -0.4092652456
