12   
Generated by ForceBalance from qchem.out: Frame 7 of 7
C        1.6339804721   -0.4475284478    0.1276122976
C        0.5861027346    0.5488950751   -0.3654215382
H        1.9037047263   -0.2411447148    1.1649038647
H        2.5433170520   -0.3982701661   -0.4735393424
H        1.2639931646   -1.4745688749    0.0777124046
H        0.9971525692    1.5588255686   -0.2806582436
C       -0.7235061431    0.4790805694    0.4160251140
H        0.3551441608    0.3908038909   -1.4208101441
H       -1.2506110280    1.4322088762    0.3740553452
H       -0.5370230230    0.2424371900    1.4692308597
O       -1.6638186440   -0.4597791654   -0.1594285570
H       -1.2155340533   -1.3356189398   -0.1392732699
