12   
Generated by ForceBalance from qchem.out: Frame 11 of 11
C        1.4540573079   -0.5514709688    0.0246474783
C        0.6615191851    0.7487627555   -0.1103316158
H        1.2800744042   -1.0363006839    0.9873338797
H        2.5223798078   -0.3457742961   -0.0532657734
H        1.2111241992   -1.2590298559   -0.7708082086
H        1.0464617372    1.4796783087    0.6033038546
C       -0.8632022584    0.6165314500    0.0992085290
H        0.8562578463    1.1583386141   -1.1042124359
H       -1.3982042889    1.1989911316   -0.6540048673
H       -1.1322930123    1.0188191344    1.0789587890
O       -1.3970408349   -0.7299826692    0.0595830399
H       -0.6485990871   -1.3397971627   -0.1019083361
