12   
Generated by ForceBalance from qchem.out: Frame 8 of 8
C        1.4281744574   -0.5976366489    0.0697440789
C        0.7014872406    0.7361829713   -0.0771721245
H        1.2088144911   -1.0657497105    1.0297070076
H        2.5068758188   -0.4473194514   -0.0009331296
H        1.1236743539   -1.2929312854   -0.7100148373
H        1.0598978505    1.4468783650    0.6710617709
C       -0.8288733522    0.6180073251    0.0456002861
H        0.9606031176    1.1631623032   -1.0501513420
H       -1.3351711632    1.2617421275   -0.6767571592
H       -1.1430702710    0.9371368663    1.0410462773
O       -1.2988712358   -0.7505595220   -0.0708958446
H       -1.6997209781   -0.8366459090   -0.9630003523
