12   
Generated by ForceBalance from qchem.out: Frame 12 of 12
C        1.8086026182   -0.1043337673   -0.2855746928
C        0.5496579644    0.4760766049    0.3559354824
H        2.1240012512   -1.0127387737    0.2307550924
H        2.6365209247    0.6056441995   -0.2490774475
H        1.6241543195   -0.3590674980   -1.3305264803
H        0.7598433841    0.7588893379    1.3898932331
C       -0.6455142289   -0.4896555542    0.3054317761
H        0.2845981883    1.4017089427   -0.1637120839
H       -0.9703465613   -0.7502561671    1.3168749205
H       -0.3679132929   -1.4159044912   -0.2019717609
O       -1.7946975420    0.0255801101   -0.4148328019
H       -1.6518174424    0.9903576788   -0.5170316733
