12   
Generated by ForceBalance from qchem.out: Frame 13 of 13
C        1.5064589575   -0.4971249943   -0.1945971073
C        0.6252983116    0.6634228984    0.2625684596
H        1.1180460911   -1.4556988940    0.1511761541
H        2.5234970781   -0.3906946572    0.1855738087
H        1.5535973717   -0.5363618157   -1.2843512370
H        0.6114847200    0.7181634192    1.3559758954
C       -0.8064824159    0.5566592152   -0.2370648493
H        1.0453548400    1.6104024750   -0.0876211491
H       -0.8301656678    0.5305736303   -1.3289017854
H       -1.3852224997    1.4237567640    0.0959795791
O       -1.4770785547   -0.6461641469    0.2157536764
H       -0.9318773243   -1.0102948253    0.9466038505
