12   
Generated by ForceBalance from qchem.out: Frame 12 of 12
C        1.4321539800   -0.5759149715   -0.0577922412
C        0.6822545391    0.7540470214    0.0004355767
H        1.2795734348   -1.1677785051    0.8464127223
H        2.5044610870   -0.3968390316   -0.1494027644
H        1.1065553278   -1.1736688722   -0.9082288115
H        1.0193028246    1.3146834940    0.8756922144
C       -0.8574736029    0.6125137643    0.0395254882
H        0.9623684145    1.3522694055   -0.8691687586
H       -1.3089705213    1.0614605785   -0.8440811713
H       -1.2656969815    1.1274720500    0.9146661578
O       -1.3401328105   -0.7513523528    0.0148126974
H       -0.9625619126   -1.1871849991    0.8109838819
