12   
Generated by ForceBalance from qchem.out: Frame 8 of 8
C        1.8037067102   -0.1316836417    0.2951064458
C        0.5562256198    0.4480357447   -0.3676585827
H        1.6128800487   -0.3489629267    1.3475298477
H        2.6407647521    0.5664841846    0.2405854992
H        2.1127437877   -1.0604789119   -0.1889530648
H        0.2734599519    1.3801825903    0.1240071283
C       -0.6551764126   -0.4846768473   -0.2839174802
H        0.7718713411    0.6943798571   -1.4096635144
H       -0.4031800996   -1.4073206418    0.2493931608
H       -1.0042196548   -0.7652228551   -1.2813487195
O       -1.7108301352    0.2062198528    0.4356918184
H       -2.5610959494   -0.1366685002    0.0823744825
