12   
Generated by ForceBalance from qchem.out: Frame 10 of 10
C        1.4285163271   -0.5658115498    0.0322918468
C        0.6622428847    0.7529908888   -0.0591643798
H        1.2826394808   -1.0598449067    0.9962990551
H        2.4985831080   -0.3842630704   -0.0753546061
H        1.1297134224   -1.2523616905   -0.7606517135
H        1.0346956904    1.4435859262    0.7002105727
C       -0.8705228919    0.6284401626    0.0918618916
H        0.8935541647    1.2056248307   -1.0259991685
H       -1.3851500593    1.2193680048   -0.6654963081
H       -1.1693406953    1.0148787963    1.0718079348
O       -1.4054961827   -0.7098440051   -0.0404615688
H       -0.7090626546   -1.3251310929    0.2717980433
