12   
Generated by ForceBalance from qchem.out: Frame 8 of 8
C        1.8997977204   -0.1394135437   -0.0423177285
C        0.5242042888    0.5213050959    0.0072709118
H        2.0644077997   -0.7705679950    0.8335165236
H        2.6936273521    0.6084229205   -0.0684917331
H        2.0021208520   -0.7665689469   -0.9304516636
H        0.4466249909    1.1798187988    0.8749611203
C       -0.5969822452   -0.4978525263    0.0763234462
H        0.3683389901    1.1425129193   -0.8771627280
H       -0.5022187072   -1.1189310617    0.9726405373
H       -0.5544473594   -1.1603545995   -0.7930226828
O       -1.8642408774    0.2078017152    0.1202230342
H       -2.4630391978   -0.2474832967   -0.5097310708
