12   
Generated by ForceBalance from qchem.out: Frame 12 of 12
C        1.5444148311   -0.5116242983   -0.1064013320
C        0.6319301507    0.6298903843    0.3305778675
H        1.0979815263   -1.4720479822    0.1482232959
H        2.5187177556   -0.4421228847    0.3800893086
H        1.7046835087   -0.4877877443   -1.1863671104
H        0.4930358635    0.6059777772    1.4136551675
C       -0.7325302736    0.5617027292   -0.3256065679
H        1.0858360188    1.5945075737    0.0845012636
H       -0.6392548083    0.6181573758   -1.4162406525
H       -1.3569922244    1.3974982186    0.0060233352
O       -1.3341653138   -0.6996582554    0.0569661009
H       -2.2896740654   -0.6274264899   -0.1633194899
