12   
Generated by ForceBalance from qchem.out: Frame 8 of 8
C        1.6225303837   -0.4739196896   -0.1079775608
C        0.6020676327    0.5676929806    0.3433173756
H        1.2208380637   -1.4833497757    0.0034621432
H        2.5404912255   -0.4154869694    0.4792149342
H        1.8852730972   -0.3281982350   -1.1576368384
H        0.3754416892    0.4635103510    1.4055313117
C       -0.7156483725    0.4811426635   -0.4185215162
H        1.0278831097    1.5656095755    0.2026963097
H       -0.5562232342    0.1795681751   -1.4570670945
H       -1.2125189293    1.4533746341   -0.4277936979
O       -1.6399036771   -0.4189224860    0.2511007412
H       -1.6610712611   -1.2474606000   -0.2748256454
