12   
Generated by ForceBalance from qchem.out: Frame 12 of 12
C        1.4544203881   -0.5400534395   -0.1145716829
C        0.6550933107    0.7411607099    0.1257423404
H        1.2573194616   -1.2952822516    0.6487649641
H        2.5236648192   -0.3283320874   -0.0718554716
H        1.2363586630   -0.9753382145   -1.0917723441
H        0.8380478610    1.0671050225    1.1531919956
C       -0.8564993034    0.6078516048   -0.1074549656
H        1.0286928842    1.5379379618   -0.5209987690
H       -1.0818948530    0.8329229056   -1.1535285104
H       -1.3985839865    1.3266188589    0.5115148775
O       -1.4118511112   -0.7047771195    0.1495522674
H       -0.6751590200   -1.2818277363    0.4373096450
