12   
Generated by ForceBalance from qchem.out: Frame 8 of 8
C        1.8576883488   -0.1597886124    0.1963907690
C        0.5625906769    0.5344762867   -0.2194021005
H        1.7475450126   -0.6118168823    1.1835267806
H        2.6879071027    0.5470592233    0.2391265900
H        2.1307433953   -0.9508497773   -0.5055899828
H        0.3106355234    1.2977395025    0.5191859629
C       -0.6289408317   -0.4239744032   -0.2814485782
H        0.6930702162    1.0503608100   -1.1733609459
H       -0.4031442744   -1.3374939690    0.2753803744
H       -0.8579817835   -0.7164580414   -1.3087343543
O       -1.7899594395    0.1756766740    0.3554296872
H       -2.4930313500    0.2328183512   -0.3263980707
