12   
Generated by ForceBalance from qchem.out: Frame 7 of 7
C        1.8806285379   -0.1205107519   -0.1077371015
C        0.5078991539    0.5044629374    0.1326297823
H        2.1050177884   -0.8812947745    0.6427853941
H        2.6692116972    0.6320227218   -0.0652087716
H        1.9219843424   -0.5969233946   -1.0889326933
H        0.4777457413    1.0377540815    1.0847395271
C       -0.6116880703   -0.5277780094    0.0915579720
H        0.3164939293    1.2477688631   -0.6478064425
H       -0.6494699147   -1.1081728793    1.0135116123
H       -0.4450311196   -1.2256646657   -0.7371171900
O       -1.9197311204    0.0757910121   -0.0295327432
H       -1.8979168450    0.5824946459   -0.8721181569
