12   
Generated by ForceBalance from qchem.out: Frame 8 of 8
C        1.8621023201   -0.1497429143    0.1560018321
C        0.5330902661    0.5070233469   -0.2102442188
H        1.8196534941   -0.5623412229    1.1654860290
H        2.6799617441    0.5715589831    0.1206151294
H        2.1085664049   -0.9647412155   -0.5284452707
H        0.3099955409    1.2967621431    0.5102394399
C       -0.6339415001   -0.4702627981   -0.1651979063
H        0.5878828231    0.9822756201   -1.1917908731
H       -0.4599207457   -1.2294466864    0.6040592205
H       -0.7529580041   -0.9893407841   -1.1197900354
O       -1.8400030747    0.2584983184    0.1859568452
H       -2.5469737033   -0.0482749191   -0.4219339810
