12   
Generated by ForceBalance from qchem.out: Frame 8 of 8
C        1.6204030618   -0.4661410995    0.1276368260
C        0.6033687373    0.5596059420   -0.3634117697
H        1.8862186678   -0.2789548756    1.1698944033
H        2.5370118278   -0.4343660409   -0.4637698539
H        1.2095238814   -1.4750989654    0.0570897925
H        1.0267224033    1.5629018473   -0.2591047404
C       -0.7137379100    0.4943388532    0.3967582913
H        0.3794235161    0.4161110412   -1.4217833096
H       -1.2064290590    1.4710647824    0.4096438087
H       -0.5498038122    0.1889763198    1.4335730647
O       -1.5924918726   -0.4404947826   -0.2877745579
H       -1.9990458280   -1.0090512067    0.4016037839
