12   
Generated by ForceBalance from qchem.out: Frame 8 of 8
C        1.8833367734   -0.1387048278   -0.1373034163
C        0.5445927893    0.5234755865    0.1802756513
H        2.1274992132   -0.9179790662    0.5883211699
H        2.6948538172    0.5905081846   -0.1264005576
H        1.8571834172   -0.5992605961   -1.1264038077
H        0.5836469310    1.0483002914    1.1370171183
C       -0.6136381677   -0.4651788475    0.1715204539
H        0.3233408509    1.2739791667   -0.5815560664
H       -0.7398093727   -0.9360847852    1.1498781791
H       -0.4243673760   -1.2608179159   -0.5561491081
O       -1.8214264273    0.2343598699   -0.2295631737
H       -2.5328390114   -0.0476625955    0.3850872163
