12   
Generated by ForceBalance from qchem.out: Frame 7 of 7
C        1.5260038929   -0.4966528199   -0.1040355543
C        0.6333029171    0.6815261139    0.2789641840
H        1.1778371387   -1.4239039198    0.3540184572
H        2.5506791178   -0.3360749843    0.2339613403
H        1.5500418592   -0.6367491648   -1.1874364451
H        0.5895390027    0.7722420603    1.3666893179
C       -0.7856598702    0.5574723286   -0.2583258453
H        1.0646674699    1.6109145537   -0.1043450081
H       -0.7738449884    0.5638549587   -1.3545261006
H       -1.4014808853    1.3917822299    0.0774041915
O       -1.4697997061   -0.6220243470    0.2217952179
H       -0.9328204309   -1.3864432688   -0.0833948867
