12   
Generated by ForceBalance from qchem.out: Frame 8 of 8
C        1.5738863882   -0.4843993697    0.1469720909
C        0.6156286322    0.5997995142   -0.3354347405
H        1.7518183811   -0.3902742127    1.2199253625
H        2.5372386456   -0.4184557878   -0.3614439215
H        1.1548033750   -1.4736530958   -0.0419798754
H        1.0411402587    1.5846769947   -0.1176276169
C       -0.7488516600    0.4984012552    0.3272738729
H        0.4748360030    0.5424997350   -1.4165648666
H       -1.3089073601    1.4277470873    0.1960788891
H       -0.6472045106    0.3188557762    1.4009414347
O       -1.4884054695   -0.6137868260   -0.2483111353
H       -2.3040392277   -0.2348827852   -0.6390661206
