12   
Generated by ForceBalance from qchem.out: Frame 8 of 8
C        1.8477587438   -0.1441916247    0.2167088298
C        0.5467018640    0.5160476456   -0.2339824014
H        1.7443835110   -0.5450577501    1.2266412364
H        2.6718808460    0.5711531668    0.2205414182
H        2.1260417275   -0.9679182063   -0.4444630544
H        0.2782874417    1.3086095461    0.4667838779
C       -0.6283473124   -0.4592642411   -0.2684411605
H        0.6783693934    0.9883081381   -1.2094714953
H       -0.3815853845   -1.3638532607    0.2973349568
H       -0.8735028085   -0.7639553783   -1.2910892842
O       -1.7645212246    0.1992258939    0.3468339966
H       -2.4218764546   -0.5074193517    0.5365326866
