12   
Generated by ForceBalance from qchem.out: Frame 12 of 12
C        1.4056716536   -0.6043241094   -0.0507446270
C        0.7081113044    0.7516873376    0.0123640214
H        1.1149993526   -1.2269312784    0.7929160843
H        2.4886885629   -0.4709262928   -0.0318963902
H        1.1505011368   -1.1437122451   -0.9642440335
H        1.0218051089    1.2568406581    0.9287240848
C       -0.8312499540    0.6587065114   -0.0103939702
H        1.0436840661    1.3840697083   -0.8133738231
H       -1.2198254991    0.9971374873   -0.9736746302
H       -1.2654249407    1.3005898935    0.7573048040
O       -1.3176331479   -0.6822027007    0.2604946444
H       -1.6155073140   -1.0486675386   -0.5992415335
