12   
Generated by ForceBalance from qchem.out: Frame 11 of 11
C        1.4924663002   -0.5162028043    0.1460733802
C        0.6366941013    0.6928001150   -0.2298890795
H        1.4389362537   -0.7153511358    1.2180377396
H        2.5370474458   -0.3413585613   -0.1156129375
H        1.1771920228   -1.4218118992   -0.3729455199
H        1.0597547290    1.6022163291    0.2043437012
C       -0.8160311991    0.5811717161    0.2202340995
H        0.6656353296    0.8271908961   -1.3157145413
H       -1.4177193316    1.3584568691   -0.2603420145
H       -0.8836029913    0.7222532444    1.3015633735
O       -1.4189168753   -0.7088982337   -0.0444772793
H       -0.8328118354   -1.1704562604   -0.6812429299
