12   
Generated by ForceBalance from qchem.out: Frame 8 of 8
C        1.7596311314   -0.3766930368    0.0372608949
C        0.5928324430    0.5395524713   -0.3227025929
H        2.0501399229   -0.2421458827    1.0808787208
H        2.6337384610   -0.1714086366   -0.5831424979
H        1.4831968448   -1.4231947219   -0.1032434233
H        0.8976441948    1.5798199606   -0.1784446589
C       -0.6692443366    0.2444851949    0.4995725109
H        0.3369688042    0.4285570237   -1.3780450102
H       -1.0962076172    1.1606739893    0.9162688184
H       -0.4395119925   -0.4187077694    1.3347172808
O       -1.6745001743   -0.4557342004   -0.2788814389
H       -2.2294235371    0.2413403944   -0.6918581220
