12   
Generated by ForceBalance from qchem.out: Frame 8 of 8
C        1.8824289898   -0.1151242832   -0.1162513111
C        0.5171279966    0.5167066906    0.1477739128
H        2.1292661391   -0.8579669690    0.6451526301
H        2.6718854008    0.6378015771   -0.1155459901
H        1.8895435166   -0.6134961240   -1.0866586596
H        0.5271270755    1.0844900955    1.0817752215
C       -0.6095860619   -0.5126798190    0.1692696112
H        0.3016941625    1.2251110933   -0.6571680707
H       -0.7169000142   -0.9481417412    1.1682871192
H       -0.3959356003   -1.3241754964   -0.5283428081
O       -1.8797369810    0.0297248909   -0.2692116019
H       -1.8680350530    0.9812543729   -0.0239462225
