12   
Generated by ForceBalance from qchem.out: Frame 8 of 8
C        1.4586440761   -0.5546548274    0.1183415096
C        0.6621320182    0.7063935511   -0.2019979784
H        1.4136998000   -0.7870718476    1.1843920509
H        2.5073221665   -0.4277136055   -0.1554231008
H        1.0555144512   -1.4051227268   -0.4278895718
H        1.0890216340    1.5757804274    0.3061433521
C       -0.8013237910    0.5887740382    0.1912272049
H        0.7220786742    0.9034056606   -1.2753325113
H       -1.3841615481    1.3972110866   -0.2590511114
H       -0.9104284770    0.6603669439    1.2791672684
O       -1.2917452799   -0.7047431319   -0.2451954210
H       -2.2481089269   -0.5883061113   -0.4376015492
