12   
Generated by ForceBalance from qchem.out: Frame 8 of 8
C        1.8534242036   -0.1931883622   -0.1689792690
C        0.5461886728    0.5358673604    0.1354056421
H        2.1200212747   -0.8870231364    0.6315863725
H        2.6787435701    0.5109984383   -0.2854271392
H        1.7675730037   -0.7668564359   -1.0937214795
H        0.6528940767    1.1710727042    1.0168776272
C       -0.6258001426   -0.4229565078    0.3166730506
H        0.2944195515    1.1929891751   -0.6990826035
H       -0.7240101056   -0.7480043660    1.3565301980
H       -0.4629260787   -1.3158879119   -0.2936961420
O       -1.8520557172    0.2351181080   -0.0997628674
H       -2.3438863378   -0.4123936680   -0.6485416714
