12   
Generated by ForceBalance from qchem.out: Frame 8 of 8
C        1.8766467122   -0.1277720117   -0.1182657768
C        0.5173095618    0.5142407354    0.1517424250
H        2.1255991474   -0.8713363885    0.6422375826
H        2.6712929911    0.6197662443   -0.1241871776
H        1.8764621784   -0.6283073425   -1.0879803579
H        0.5355953133    1.0777911864    1.0881483622
C       -0.6156923511   -0.5081768613    0.1649170457
H        0.2898178287    1.2269585953   -0.6436219929
H       -0.7209450460   -0.9863314695    1.1428858979
H       -0.4068094680   -1.2933986802   -0.5640012881
O       -1.8717682108    0.0685876979   -0.2721902828
H       -2.3139970244    0.4141129800    0.5344419815
