12   
Generated by ForceBalance from qchem.out: Frame 12 of 12
C        1.4461292694   -0.5528919399   -0.0812439483
C        0.6655991711    0.7545761500    0.0580441955
H        1.2848717976   -1.2181512410    0.7697096677
H        2.5164409575   -0.3453282588   -0.1154636492
H        1.1773224635   -1.0888094555   -0.9928536417
H        0.9297949242    1.2064297031    1.0171848969
C       -0.8688467476    0.6140767829   -0.0371030442
H        0.9979304882    1.4550291432   -0.7106428452
H       -1.2144476145    0.9555923249   -1.0144475179
H       -1.3475182100    1.2415156439    0.7197948453
O       -1.3867808375   -0.7324854329    0.0952485817
H       -0.6672759446   -1.2860888558    0.4629354685
