12   
Generated by ForceBalance from qchem.out: Frame 8 of 8
C        1.8789764310   -0.1502744774   -0.1053185488
C        0.5243167387    0.5165270511    0.1211323659
H        2.0875497142   -0.8977507610    0.6634351440
H        2.6857172213    0.5838237186   -0.0822760571
H        1.9077302659   -0.6504794374   -1.0751998717
H        0.5148613058    1.0701480210    1.0619956844
C       -0.6152425385   -0.4841338499    0.1163663834
H        0.3286284093    1.2380964560   -0.6747941685
H       -0.6218405545   -1.0750921489    1.0387400044
H       -0.5026548462   -1.1763523928   -0.7257907824
O       -1.8442350764    0.2675814343   -0.0224495450
H       -2.5726546918   -0.3935511769   -0.0239263902
