12   
Generated by ForceBalance from qchem.out: Frame 8 of 8
C        1.8412877113   -0.0956244016    0.2246166962
C        0.5326526909    0.4844958855   -0.3079490491
H        1.7408859937   -0.3648471662    1.2772565533
H        2.6582521151    0.6218464547    0.1332801729
H        2.1243919803   -0.9952220373   -0.3253285525
H        0.2875084797    1.3735244230    0.2820243700
C       -0.6327261713   -0.5095447501   -0.2124679637
H        0.6576837237    0.8311553155   -1.3359638085
H       -0.3535442952   -1.3369058101    0.4480413513
H       -0.8737819508   -0.9328368385   -1.1891068589
O       -1.8611550098    0.0638792243    0.3011979631
H       -1.6190684245    0.9223714167    0.7089357605
