12   
Generated by ForceBalance from qchem.out: Frame 8 of 8
C        1.4507168696   -0.5769322473   -0.0681067937
C        0.6743011615    0.7131277955    0.1811565062
H        1.0521665844   -1.3859628988    0.5397642645
H        2.5036459763   -0.4360266294    0.1821644700
H        1.3884438066   -0.8832946322   -1.1136915055
H        0.7601153078    0.9653233685    1.2411934285
C       -0.8043510717    0.6148083567   -0.1886049738
H        1.1161027473    1.5459272420   -0.3717131356
H       -0.9455721939    0.8907820679   -1.2395451558
H       -1.4037063875    1.2992762633    0.4199677834
O       -1.2395246019   -0.7535761719   -0.0009790019
H       -2.1911664825   -0.7683626823   -0.2496848380
