12   
Generated by ForceBalance from qchem.out: Frame 8 of 8
C        1.4337607945   -0.5981812243   -0.0434607870
C        0.7041349781    0.7391869427    0.0521903252
H        1.1126167228   -1.2721723410    0.7479354712
H        2.5100941387   -0.4405945826    0.0466428439
H        1.2393826926   -1.0909174349   -0.9963425030
H        0.9503495939    1.1964330100    1.0135356799
C       -0.8238052938    0.6284792419   -0.0777932506
H        1.0755783006    1.4245344796   -0.7132329470
H       -1.1356516912    0.9749475412   -1.0670516161
H       -1.3274580180    1.2556169010    0.6636478897
O       -1.2383663395   -0.7518320738    0.0898411848
H       -2.0507996767   -0.8592860011   -0.4512337211
