12   
Generated by ForceBalance from qchem.out: Frame 8 of 8
C        1.6648352308   -0.4256263933   -0.0852056698
C        0.5757000724    0.5420022719    0.3685791167
H        1.2980203906   -1.4532059728   -0.0592588680
H        2.5472255283   -0.3630438596    0.5538937724
H        1.9733173963   -0.2022017041   -1.1079504931
H        0.3206126196    0.3728673262    1.4174172523
C       -0.6996026749    0.4253731223   -0.4667843223
H        0.9575441889    1.5653041402    0.3012688479
H       -0.4776805724    0.0690734450   -1.4729791650
H       -1.1968683179    1.3960907680   -0.5586835994
O       -1.6264129209   -0.5439453580    0.0826368211
H       -2.0267631618   -0.1082943042    0.8675378357
