12   
Generated by ForceBalance from qchem.out: Frame 7 of 7
C        1.4410771815   -0.5755650687    0.0707037617
C        0.6819601706    0.7283273956   -0.1603317291
H        1.3330352174   -0.9226739533    1.0997660751
H        2.5043419899   -0.4321103636   -0.1291040645
H        1.0641563784   -1.3567800859   -0.5853593675
H        1.0997842912    1.5354079442    0.4466270591
C       -0.8130482781    0.6210298297    0.1331988686
H        0.8179411559    1.0220576171   -1.2043865506
H       -1.3772118018    1.3343496408   -0.4748646779
H       -1.0087793576    0.8518732597    1.1863888822
O       -1.2442216498   -0.7363365538   -0.1335038833
H       -2.2263905004   -0.7052602048   -0.1723542317
