12   
Generated by ForceBalance from qchem.out: Frame 12 of 12
C        1.7975745229   -0.2012835651    0.2763456706
C        0.5711887798    0.5577044607   -0.2267913628
H        1.5855451735   -0.6937252540    1.2276119473
H        2.6449311719    0.4695820438    0.4282656458
H        2.1042966705   -0.9688080204   -0.4372773177
H        0.2857564425    1.3311917225    0.4876643719
C       -0.6531491329   -0.3437790633   -0.4310443593
H        0.8193037231    1.0675190740   -1.1604699552
H       -0.4063981908   -1.3853114701   -0.2102544090
H       -1.0045618332   -0.3039746462   -1.4645937259
O       -1.7534268794    0.0990715525    0.4115919744
H       -1.9757204960   -0.6501057465    1.0043617581
