12   
Generated by ForceBalance from qchem.out: Frame 12 of 12
C        1.5342411748   -0.5103203995    0.0693183338
C        0.6203879575    0.6520376271   -0.3121939352
H        1.6171073488   -0.6066767171    1.1546073876
H        2.5389067857   -0.3643464411   -0.3298176817
H        1.1629372397   -1.4549642661   -0.3314145461
H        1.0717021192    1.5964997818    0.0055818877
C       -0.7658417887    0.5526430089    0.3090768363
H        0.5147399672    0.6957204608   -1.3986053434
H       -1.4006788964    1.3730768872   -0.0254209282
H       -0.6917181881    0.6047160379    1.4016446629
O       -1.4745592759   -0.6451499284   -0.0816661189
H       -0.9203459213   -1.3967130168    0.2246604238
