12   
Generated by ForceBalance from qchem.out: Frame 8 of 8
C        1.8423749062   -0.1773646308   -0.2200164035
C        0.5565948321    0.5237474843    0.2125394049
H        2.1190013402   -0.9689674774    0.4799623522
H        2.6757775053    0.5252118969   -0.2724426740
H        1.7196028042   -0.6293213090   -1.2059098607
H        0.7062425546    1.0382086929    1.1637967987
C       -0.6333037832   -0.4297985750    0.3036365771
H        0.2931048623    1.2872934325   -0.5215037732
H       -0.8723616932   -0.6835907187    1.3415023721
H       -0.4067307841   -1.3630889648   -0.2226106082
O       -1.7655668209    0.2179290627   -0.3301240569
H       -2.4360282638   -0.4858731410   -0.4805078933
