12   
Generated by ForceBalance from qchem.out: Frame 8 of 8
C        1.6741928099   -0.4206514336    0.1427397427
C        0.5881329827    0.5074496032   -0.3948193420
H        1.9553065390   -0.1370068557    1.1586623232
H        2.5715477880   -0.3820662643   -0.4772265747
H        1.3216805563   -1.4532573188    0.1647298397
H        0.9628192060    1.5350725494   -0.3846199009
C       -0.7004512415    0.4434121369    0.4147607840
H        0.3404244495    0.2669224959   -1.4295943199
H       -1.2209144586    1.4044972230    0.3702115903
H       -0.4988785101    0.2193967477    1.4673907534
O       -1.5435566592   -0.5891567131   -0.1620298172
H       -2.4717701504   -0.3142626762    0.0035514491
