12   
Generated by ForceBalance from qchem.out: Frame 12 of 12
C        1.4481429405   -0.5630147533    0.0542742385
C        0.6628009754    0.7183084213   -0.2130261421
H        1.4002092098   -0.8423505386    1.1078645967
H        2.4966684083   -0.4307230298   -0.2173787758
H        1.0511670085   -1.3965735831   -0.5225303822
H        1.1236063375    1.5667204380    0.2990615534
C       -0.8062567828    0.6299017685    0.2135250255
H        0.7171344068    0.9423178242   -1.2831004269
H       -1.4194027959    1.3373873189   -0.3537514631
H       -0.9044632282    0.8775124671    1.2709897019
O       -1.3596115202   -0.7036793169    0.1312158890
H       -1.2807297382   -0.9731769188   -0.8123838961
