12   
Generated by ForceBalance from qchem.out: Frame 7 of 7
C        1.4678476379   -0.5355603193   -0.1106051113
C        0.6521315947    0.7292335725    0.1594864625
H        1.2282304069   -1.3379031313    0.5890735783
H        2.5324163617   -0.3273418089    0.0051625796
H        1.3025569033   -0.9104434359   -1.1221182097
H        0.7798996039    1.0008577558    1.2111666980
C       -0.8439089394    0.6008371759   -0.1554526499
H        1.0527083030    1.5621011044   -0.4226300138
H       -1.0244284420    0.8586551708   -1.2013322813
H       -1.4176364149    1.2967155441    0.4633561633
O       -1.3932681458   -0.7295089971    0.0052241557
H       -0.7420109141   -1.2496414159    0.5204764128
