12   
Generated by ForceBalance from qchem.out: Frame 9 of 9
C        1.4301236531   -0.5996059116   -0.0052972929
C        0.7062801472    0.7449446576   -0.0192565547
H        1.1629174903   -1.1819442733    0.8753085470
H        2.5094795177   -0.4372940869    0.0013618739
H        1.1755493238   -1.1927069710   -0.8822191216
H        1.0307145920    1.3337968798    0.8416167097
C       -0.8300366608    0.6337142584   -0.0035269125
H        1.0167614103    1.3061734812   -0.9036281417
H       -1.2522988051    1.1186205578   -0.8874045284
H       -1.2466929624    1.1352675939    0.8749835325
O       -1.2283900158   -0.7618556417    0.0214587149
H       -2.0932992266   -0.8069200173   -0.4418220700
