12   
Generated by ForceBalance from qchem.out: Frame 12 of 12
C       -1.7469595865    0.0193577079    0.3750615629
C       -0.5665043547   -0.3369285584   -0.5260247666
H       -1.4730132017   -0.0623972910    1.4287658197
H       -2.5982974288   -0.6390935804    0.1943832517
H       -2.0707904281    1.0451149869    0.1924872037
H       -0.2971934341   -1.3905788791   -0.4064389192
C        0.6706135235    0.5343661065   -0.2733059585
H       -0.8748259345   -0.2308841263   -1.5693380041
H        0.3990473496    1.4252685885    0.2988659707
H        1.1059270254    0.8655366313   -1.2192788010
O        1.7296099583   -0.1425202248    0.4534716714
H        1.4107195161   -1.0519687143    0.6340402972
