12   
Generated by ForceBalance from qchem.out: Frame 12 of 12
C        1.8922894264   -0.1161020744    0.0436858857
C        0.5071776831    0.5173840265   -0.0652915679
H        1.9828855313   -0.6834410849    0.9712586074
H        2.6741463818    0.6444142887    0.0345070179
H        2.0793426976   -0.7985922698   -0.7877619310
H        0.3449441920    1.1722958630    0.7958944614
C       -0.6044234059   -0.5207670537   -0.0815449736
H        0.4390623147    1.1395057081   -0.9620827908
H       -0.4418375006   -1.2592049203    0.7067676926
H       -0.6195388599   -1.0482839703   -1.0404269041
O       -1.9134919310    0.0515752401    0.1632823229
H       -1.8164635208    1.0215430055    0.0456672273
