12   
Generated by ForceBalance from qchem.out: Frame 8 of 8
C        1.4608984354   -0.5736391476   -0.0834909967
C        0.6930723963    0.7189364005    0.1742152736
H        1.0854424461   -1.3734488207    0.5510243919
H        2.5235365232   -0.4328016118    0.1211807399
H        1.3538373731   -0.8973596446   -1.1202360952
H        0.8140389291    0.9882991724    1.2277561424
C       -0.7974314172    0.6040888622   -0.1562753594
H        1.1142512840    1.5450512169   -0.4047681969
H       -0.9521908008    0.8151268892   -1.2167314092
H       -1.3875724885    1.3266103093    0.4121008697
O       -1.3001735390   -0.7440443187    0.0346506530
H       -1.8260184966   -0.7347490185    0.8638560359
