12   
Generated by ForceBalance from qchem.out: Frame 8 of 8
C        1.4345397533   -0.5923891178   -0.0331152265
C        0.6999108943    0.7403847298    0.0919411147
H        1.1100456676   -1.2855843065    0.7398329456
H        2.5097587160   -0.4343515149    0.0676040170
H        1.2470270733   -1.0621378703   -0.9990457283
H        0.9261846899    1.1633837649    1.0739116802
C       -0.8236996690    0.6299147376   -0.0713221894
H        1.0835339717    1.4521905359   -0.6425536320
H       -1.1295567313    0.9964887598   -1.0563355917
H       -1.3341755357    1.2393392347    0.6786588698
O       -1.2321054890   -0.7579249006    0.0439698622
H       -2.1414692674   -0.7462891479    0.4154436011
