12   
Generated by ForceBalance from qchem.out: Frame 8 of 8
C        1.8378750755   -0.0905352551    0.2321237404
C        0.5336481430    0.4774132067   -0.3236143258
H        1.7326703473   -0.3310073405    1.2914228184
H        2.6571422413    0.6222375903    0.1257230274
H        2.1220640775   -1.0055758219   -0.2911697719
H        0.2836094864    1.3857880141    0.2333024153
C       -0.6365131258   -0.5092012592   -0.2051923892
H        0.6654040553    0.7915846269   -1.3611420816
H       -0.3574008869   -1.3267683441    0.4689836279
H       -0.8916226035   -0.9487601778   -1.1698268500
O       -1.8608660982    0.0891507558    0.2849946325
H       -1.5873870052    0.8258973337    0.8734246580
