12   
Generated by ForceBalance from qchem.out: Frame 12 of 12
C        1.4793922449   -0.5659997434    0.0799525586
C        0.6626511995    0.6818964380   -0.2376641871
H        1.4906941364   -0.7662792052    1.1536960588
H        2.5125388742   -0.4435292237   -0.2494357466
H        1.0531720239   -1.4338920051   -0.4185174664
H        1.1168005828    1.5718718030    0.2069486446
C       -0.7763947516    0.5880224216    0.2473105203
H        0.6607396615    0.8384836464   -1.3195057397
H       -1.3933068172    1.3765967194   -0.1951851796
H       -0.8015315548    0.7118730898    1.3348399588
O       -1.3053888091   -0.7153339053   -0.1029234794
H       -1.9700535091   -0.9380756048    0.5847619042
