12   
Generated by ForceBalance from qchem.out: Frame 8 of 8
C        1.4136136386   -0.5953460589    0.0012355611
C        0.6920223505    0.7504036430   -0.0111698312
H        1.1675212141   -1.1660731535    0.8955082521
H        2.4930741158   -0.4351679411   -0.0210618605
H        1.1360556696   -1.1988364384   -0.8615092111
H        1.0372201204    1.3480801963    0.8354393643
C       -0.8435855193    0.6422435971    0.0417375930
H        0.9828403833    1.3012265734   -0.9086499069
H       -1.2855154350    1.1181590353   -0.8373913835
H       -1.2388490969    1.1541382967    0.9241574035
O       -1.2431124689   -0.7522940874    0.0919637240
H       -2.1186897249   -0.8011566099   -0.3504368142
