12   
Generated by ForceBalance from qchem.out: Frame 7 of 7
C        1.4462473824   -0.5879551627    0.0758877161
C        0.6931043804    0.7234907252   -0.1244846286
H        1.3199888555   -0.9679934031    1.0912719035
H        2.5133091450   -0.4400362233   -0.0995066887
H        1.0800490458   -1.3476992323   -0.6106817708
H        1.1057381837    1.5097924173    0.5128365197
C       -0.8072511598    0.6137510844    0.1519726093
H        0.8446418789    1.0530038139   -1.1555728206
H       -1.3706793613    1.3440826241   -0.4366836648
H       -0.9968999632    0.8219865940    1.2094241727
O       -1.2619164822   -0.7292329059   -0.1518318300
H       -2.0155204733   -0.9058092352    0.4523541442
