12   
Generated by ForceBalance from qchem.out: Frame 13 of 13
C        1.4681576085   -0.5273700790   -0.1718771646
C        0.6442878401    0.7042475985    0.1979706711
H        1.1337313776   -1.4131316599    0.3672407561
H        2.5217160345   -0.3712602537    0.0646474574
H        1.3871587596   -0.7436930130   -1.2386838126
H        0.7271573133    0.8813313565    1.2753313582
C       -0.8296036004    0.5801304702   -0.1708353066
H        1.0491250197    1.5943302617   -0.2908316206
H       -0.9590162448    0.6539356309   -1.2521450373
H       -1.4028204087    1.3884919756    0.2950993708
O       -1.4097408295   -0.6973913397    0.1853572372
H       -0.9216396621   -1.0104454609    0.9787263382
