12   
Generated by ForceBalance from qchem.out: Frame 8 of 8
C        1.6953861772   -0.3938506125    0.1684453488
C        0.5852519285    0.4818588569   -0.4068110445
H        1.9801870234   -0.0561910125    1.1668066731
H        2.5868796421   -0.3678501053   -0.4606464385
H        1.3655417465   -1.4317014717    0.2436874270
H        0.9358988481    1.5155260631   -0.4604227252
C       -0.7064115179    0.4199927475    0.4053659907
H        0.3411643304    0.1776894104   -1.4258215786
H       -1.1283309882    1.4196494206    0.5519193322
H       -0.5292389517   -0.0165231389    1.3940675316
O       -1.6438393413   -0.3940387731   -0.3444445609
H       -2.4697774666   -0.4250022149    0.1898598210
