12   
Generated by ForceBalance from qchem.out: Frame 12 of 12
C        1.4256990500   -0.5650527193   -0.0405879866
C        0.6739744174    0.7634293824    0.0248088235
H        1.1362335081   -1.2176037349    0.7827847694
H        2.5003463118   -0.3914748515    0.0275042698
H        1.2461558495   -1.0928754323   -0.9808377685
H        0.9548136415    1.2587952116    0.9569712293
C       -0.8641627563    0.6332921239   -0.0369775939
H        1.0087327215    1.4171786249   -0.7834608330
H       -1.2224845679    0.9781843268   -1.0128339189
H       -1.3414584185    1.2484080453    0.7245943777
O       -1.3753508728   -0.7000802717    0.1941368168
H       -0.8118633852   -1.3038697604   -0.3366829205
