12   
Generated by ForceBalance from qchem.out: Frame 12 of 12
C        1.4714781251   -0.5225822959    0.1668080488
C        0.6414380572    0.7085670921   -0.1948040256
H        1.3595399782   -0.7735909680    1.2232398743
H        2.5292281619   -0.3414753700   -0.0296260745
H        1.1816877786   -1.3997298301   -0.4124625303
H        1.0436127990    1.5930865394    0.3056491079
C       -0.8340370816    0.5840607190    0.1700140902
H        0.7295672559    0.8955005099   -1.2696050771
H       -1.4054874893    1.3877382219   -0.3041301239
H       -0.9605844833    0.6729860025    1.2515871038
O       -1.4261290989   -0.6875658291   -0.1901102952
H       -0.8078619856   -1.1209265678   -0.8161698650
