12   
Generated by ForceBalance from qchem.out: Frame 8 of 8
C        1.8847607792   -0.1579230073   -0.1142486279
C        0.5340535172    0.5260085532    0.0866846017
H        2.1104400602   -0.8410809556    0.7076495471
H        2.6921402513    0.5737900450   -0.1688477329
H        1.8923878078   -0.7359097562   -1.0404615874
H        0.5451361921    1.1595673557    0.9756919752
C       -0.6061741581   -0.4747778489    0.1937291876
H        0.3223960089    1.1783709126   -0.7633081073
H       -0.6060581421   -0.9683606317    1.1691389135
H       -0.4905428571   -1.2507499690   -0.5681004094
O       -1.8789731397    0.2046575890    0.0279418506
H       -2.3130020281   -0.2005942721   -0.7522883092
