12   
Generated by ForceBalance from qchem.out: Frame 7 of 7
C        1.5825628552   -0.4790969702    0.1349588239
C        0.6226555624    0.5992786654   -0.3582896814
H        1.7840643181   -0.3576365693    1.2010884768
H        2.5354477926   -0.4329776821   -0.3949146869
H        1.1531889600   -1.4696616808   -0.0189792315
H        1.0557977960    1.5874795054   -0.1769513799
C       -0.7297296330    0.5306743924    0.3251993290
H        0.4580326276    0.5115725637   -1.4337449997
H       -1.2928247905    1.4519908919    0.1439995661
H       -0.6174703350    0.4080454810    1.4081275141
O       -1.4401330635   -0.5981138492   -0.2435170789
H       -2.3822358529   -0.4911828351    0.0167303454
