12   
Generated by ForceBalance from qchem.out: Frame 8 of 8
C        1.8791861285   -0.1334420412    0.1012912906
C        0.5103234295    0.5135029165   -0.0971192247
H        1.9231310446   -0.6521689737    1.0601725167
H        2.6734367651    0.6139921515    0.0842879036
H        2.0879177878   -0.8616156141   -0.6850197978
H        0.3229950379    1.2125429377    0.7233342569
C       -0.6165264588   -0.5081304745   -0.1096578104
H        0.4896914375    1.0915131965   -1.0252352012
H       -0.4990262319   -1.2089194416    0.7199422515
H       -0.6005586755   -1.0820924053   -1.0414598133
O       -1.9251395696    0.0944014355    0.0512096179
H       -1.8073177763    1.0558441763   -0.1095021234
