12   
Generated by ForceBalance from qchem.out: Frame 8 of 8
C        1.5809434187   -0.4997970041    0.1114701515
C        0.6329150641    0.6180658769   -0.3089443178
H        1.7758784665   -0.4593018000    1.1852726261
H        2.5385656308   -0.4254321251   -0.4062584975
H        1.1434997225   -1.4716852536   -0.1203415134
H        1.0682277673    1.5896565579   -0.0557389758
C       -0.7271620114    0.5050144074    0.3544875863
H        0.4797463300    0.6075623988   -1.3900052397
H       -1.2980640224    1.4306803841    0.2345710890
H       -0.6166375073    0.3136567396    1.4255142672
O       -1.4602334770   -0.5718410193   -0.2898417192
H       -1.8709430985   -1.1053487941    0.4244404674
