12   
Generated by ForceBalance from qchem.out: Frame 7 of 7
C        1.6461434943   -0.4341811391   -0.1483589592
C        0.6039932541    0.5348970675    0.4025513315
H        1.2558547169   -1.4533107969   -0.1515772279
H        2.5567730931   -0.4218145256    0.4530186078
H        1.9163505488   -0.1704374604   -1.1726361935
H        0.3779686477    0.3166309964    1.4475893336
C       -0.7075759521    0.4915566637   -0.3669148093
H        1.0047381036    1.5517735307    0.3676834692
H       -0.5386972559    0.2402315244   -1.4194475536
H       -1.2120693712    1.4628648487   -0.3280722417
O       -1.5397622939   -0.5088505272    0.2727476506
H       -2.3841685226   -0.5286503162   -0.2320393528
