12   
Generated by ForceBalance from qchem.out: Frame 7 of 7
C        1.4198436642   -0.5870883622   -0.0799548179
C        0.6834132060    0.7315550008    0.1349524970
H        1.0598046559   -1.3425682873    0.6144562412
H        2.4914968442   -0.4493690954    0.0744634893
H        1.2701180093   -0.9669559489   -1.0922334934
H        0.8575374182    1.0564036988    1.1640855750
C       -0.8235041251    0.6367552451   -0.1098602659
H        1.0909977443    1.5161038547   -0.5075961335
H       -1.0332533242    0.8461731935   -1.1633318720
H       -1.3672633576    1.3732156479    0.4895989707
O       -1.2848449838   -0.7013900395    0.2045024386
H       -2.0527549384   -0.8711658877   -0.3834223512
