12   
Generated by ForceBalance from qchem.out: Frame 8 of 8
C        1.7665698163   -0.3704515722   -0.0387861831
C        0.5685571194    0.5606463750   -0.2164348593
H        2.0806834025   -0.4108048361    1.0062008240
H        2.6206441398   -0.0366909322   -0.6306203455
H        1.5193587108   -1.3867724389   -0.3528312555
H        0.8529888990    1.5748171554    0.0728015804
C       -0.6667586650    0.1166255136    0.5803033486
H        0.2764629647    0.6057738407   -1.2668117378
H       -0.9942707707    0.9029004343    1.2624862249
H       -0.4457104734   -0.7674008808    1.1840597592
O       -1.7981087662   -0.1423854333   -0.2949847844
H       -1.8918209850   -1.1176534905   -0.3500512864
