12   
Generated by ForceBalance from qchem.out: Frame 12 of 12
C        1.7633661380   -0.1539319536    0.3258622447
C        0.5665908883    0.5147163844   -0.3469288916
H        1.4978796385   -0.4983609824    1.3269056394
H        2.6064815022    0.5332393850    0.4151026787
H        2.0949328732   -1.0187964956   -0.2512116812
H        0.2872369768    1.4167070818    0.2040512181
C       -0.6577465320   -0.4062960192   -0.4449493818
H        0.8573034207    0.8443719729   -1.3478797818
H       -0.3940523215   -1.4405813016   -0.2233743203
H       -1.0772848882   -0.3781798751   -1.4562736318
O       -1.6991538489   -0.0780664631    0.5066063522
H       -1.7928007100    0.8995170738    0.4709068935
