12   
Generated by ForceBalance from qchem.out: Frame 7 of 7
C        1.5020109658   -0.5100027317   -0.1298639393
C        0.6140504833    0.6513926787    0.3117155224
H        1.0678371788   -1.4724125301    0.1431424919
H        2.4896648897   -0.4451764223    0.3290030151
H        1.6301270380   -0.5038972576   -1.2137731205
H        0.5323940000    0.6695120202    1.4033751279
C       -0.7850297234    0.5895647268   -0.2797881784
H        1.0716817817    1.6012934501    0.0216748304
H       -0.7400893552    0.6006117401   -1.3712245993
H       -1.3684215172    1.4561439941    0.0463306389
O       -1.5037890544   -0.6145242101    0.0878119374
H       -1.0122594462   -1.0138436667    0.8381133404
