12   
Generated by ForceBalance from qchem.out: Frame 8 of 8
C        1.7693718380   -0.3578578243   -0.0585585071
C        0.5607575375    0.4814014180    0.3523508221
H        1.5339724314   -1.4240130349   -0.0293731766
H        2.6178345740   -0.1852973617    0.6057560812
H        2.0864823631   -0.1154229299   -1.0746917959
H        0.2715975900    0.2518401978    1.3799270629
C       -0.6697162919    0.2489433894   -0.5391892777
H        0.8340675071    1.5388583191    0.3408393963
H       -0.4327097103   -0.4353859415   -1.3601577650
H       -1.0189656773    1.1820852234   -0.9804319843
O       -1.8135615817   -0.2419484809    0.2026995457
H       -1.6214479886   -1.1869425640    0.3955954410
