12   
Generated by ForceBalance from qchem.out: Frame 12 of 12
C        1.5393235341   -0.5185616501   -0.1074104568
C        0.6340966930    0.6309992862    0.3228873650
H        1.0942993317   -1.4739432642    0.1671059892
H        2.5194197292   -0.4428549390    0.3663375806
H        1.6872283523   -0.5115918227   -1.1894630950
H        0.5069360635    0.6213023745    1.4078093885
C       -0.7374979527    0.5601199681   -0.3178354883
H        1.0871818153    1.5918012552    0.0613225165
H       -0.6500417929    0.6015248671   -1.4095875309
H       -1.3587450551    1.4018648369    0.0063555713
O       -1.3373297193   -0.6935743461    0.0884271957
H       -2.2246514485   -0.7235586683   -0.3349834700
