12   
Generated by ForceBalance from qchem.out: Frame 8 of 8
C        1.9004197514   -0.1305934317   -0.0535940710
C        0.5224409211    0.5171591836    0.0643519715
H        2.0646886923   -0.8480481101    0.7528669887
H        2.6929449925    0.6171915437   -0.0022103405
H        2.0033216651   -0.6634026482   -1.0010624507
H        0.4396505466    1.0821849397    0.9948716309
C       -0.5986165624   -0.5092892928    0.0242508090
H        0.3779301038    1.2302206802   -0.7527228116
H       -0.5292657963   -1.1841086332    0.8783001887
H       -0.5350190391   -1.1152085443   -0.8859253048
O       -1.9036876154    0.1050671682    0.1360318615
H       -2.0796635394    0.5187769314   -0.7383872829
