12   
Generated by ForceBalance from qchem.out: Frame 8 of 8
C        1.4310361910   -0.6010497115    0.0028616465
C        0.6989802164    0.7365472704    0.0683866175
H        1.0827227814   -1.2700833751    0.7870853854
H        2.5048650738   -0.4480097808    0.1235017965
H        1.2691610859   -1.0996095001   -0.9540499013
H        0.9122360742    1.1976837051    1.0354502325
C       -0.8285690029    0.6165578883   -0.1069886857
H        1.0967028652    1.4185756451   -0.6873036658
H       -1.1318252922    0.9987222733   -1.0844461770
H       -1.3487043886    1.2083508102    0.6474226425
O       -1.3067377536   -0.7457757258    0.0464968380
H       -1.5128968874   -1.0712723974   -0.8555723564
