12   
Generated by ForceBalance from qchem.out: Frame 8 of 8
C        1.8996921044   -0.1355994106    0.0615589848
C        0.5347875469    0.5307026980   -0.0941788654
H        1.9623103531   -0.6723559773    1.0100543975
H        2.7019764172    0.6033778455    0.0406344129
H        2.0864536886   -0.8523260138   -0.7413427457
H        0.3667945164    1.2288362958    0.7287808532
C       -0.6025085767   -0.4745933546   -0.0761439651
H        0.4874198020    1.1125762060   -1.0169687572
H       -0.4682996826   -1.1853153737    0.7456300870
H       -0.6282292894   -1.0460586419   -1.0080943740
O       -1.8487079564    0.2403603095    0.1300416093
H       -2.4964028203   -0.1259317141   -0.5098415412
