12   
Generated by ForceBalance from qchem.out: Frame 8 of 8
C        1.6263642089   -0.4690978572    0.1078762430
C        0.5985962177    0.5661846633   -0.3431187004
H        1.8830401562   -0.3258840112    1.1593314552
H        2.5462518637   -0.3992868959   -0.4749959535
H        1.2379798230   -1.4833392696   -0.0091546917
H        1.0211152751    1.5656831147   -0.2043181935
C       -0.7183462271    0.4768989337    0.4219215912
H        0.3712621196    0.4604416565   -1.4051195835
H       -1.2238687342    1.4436375150    0.4172849644
H       -0.5557307335    0.1905224886    1.4650203200
O       -1.6550783217   -0.4233236293   -0.2247862011
H       -1.4928040498   -1.3144982558    0.1559669538
