12   
Generated by ForceBalance from qchem.out: Frame 12 of 12
C       -1.8174566772   -0.1435664834    0.2632009266
C       -0.5455830830    0.4593648124   -0.3305468244
H       -2.0935306285   -1.0660145093   -0.2514747454
H       -2.6578010266    0.5476793768    0.1824377917
H       -1.6701709284   -0.3788912591    1.3182426466
H       -0.7140037151    0.7673532944   -1.3648306180
C        0.6546323337   -0.4909127903   -0.2409017177
H       -0.3090086691    1.3678163506    0.2318542446
H        0.8477207534   -0.9619776792   -1.2091334562
H        0.4533044401   -1.2858480033    0.4805338287
O        1.8752673318    0.1472482432    0.2137463310
H        1.7294798055    1.1144509832    0.1386981298
