12   
Generated by ForceBalance from qchem.out: Frame 8 of 8
C        1.7048177752   -0.4087480443    0.1054062777
C        0.5769254979    0.5005915089   -0.3793745655
H        2.0102148658   -0.1397558338    1.1182489358
H        2.5817428945   -0.3349580622   -0.5399986065
H        1.3910562462   -1.4552334675    0.1189416517
H        0.9336533253    1.5338139827   -0.3738692774
C       -0.6942038030    0.3973308199    0.4713804564
H        0.3034312358    0.2716460654   -1.4109357717
H       -1.1367182056    1.3813489025    0.6258978579
H       -0.4775478156   -0.0279759437    1.4564341054
O       -1.7448761925   -0.3527828640   -0.1875257139
H       -1.4805386353   -1.2984165137   -0.1276535292
