12   
Generated by ForceBalance from qchem.out: Frame 8 of 8
C        1.4230321650   -0.5927089975   -0.0189603677
C        0.6940957533    0.7391951268    0.1359374050
H        1.0539689314   -1.3255794719    0.6964761310
H        2.4929247629   -0.4579379166    0.1492622301
H        1.2807797359   -1.0089777138   -1.0163751986
H        0.8555190212    1.1034561363    1.1545902852
C       -0.8169608926    0.6477328881   -0.1490848101
H        1.1323835873    1.4893165915   -0.5263495684
H       -1.0253027197    1.0185050048   -1.1533887645
H       -1.3909764852    1.2603540653    0.5504542076
O       -1.3216290922   -0.7109406636   -0.1697839315
H       -1.5961441221   -0.9203447608    0.7505044310
