12   
Generated by ForceBalance from qchem.out: Frame 11 of 11
C        1.4111192076   -0.5830077408    0.0477341705
C        0.6701748089    0.7447180207   -0.1072940638
H        1.1792853216   -1.0595056315    1.0005255251
H        2.4884518442   -0.4180253989   -0.0018684670
H        1.1569947757   -1.2854856940   -0.7468919784
H        1.0646183619    1.4700607752    0.6075089244
C       -0.8573195126    0.6457811255    0.0796917689
H        0.8899551213    1.1473475590   -1.0997631026
H       -1.3706760689    1.2744342954   -0.6547949514
H       -1.1431260273    0.9969116529    1.0711168743
O       -1.3905046885   -0.6984260509    0.0317212320
H       -0.9628714301   -1.1386218179   -0.7356547516
