12   
Generated by ForceBalance from qchem.out: Frame 12 of 12
C        1.4164398751   -0.5766201431   -0.0402043526
C        0.6837402757    0.7625490980    0.0151936361
H        1.1085850740   -1.2194502267    0.7832510533
H        2.4936050567   -0.4193926996    0.0294742069
H        1.2282778903   -1.1069388636   -0.9769548036
H        0.9757740314    1.2664587591    0.9392728054
C       -0.8553115755    0.6416584382   -0.0299897511
H        1.0185496192    1.4041542758   -0.8030996178
H       -1.2299212843    0.9826702982   -1.0006720254
H       -1.3197573850    1.2601731642    0.7365030501
O       -1.3604958207   -0.6897392269    0.2253783172
H       -0.9746323570   -1.2609631139   -0.4749651813
