12   
Generated by ForceBalance from qchem.out: Frame 6 of 6
C        1.6449520729   -0.4283627650   -0.1399090821
C        0.5822861013    0.5170921851    0.4153507737
H        1.2666489803   -1.4510971530   -0.1932104612
H        2.5419110021   -0.4303137899    0.4816401159
H        1.9329817967   -0.1253298979   -1.1475587990
H        0.3579484652    0.2878670405    1.4616575636
C       -0.7158276187    0.4997146633   -0.3893493790
H        0.9815338714    1.5353536613    0.4144616229
H       -0.5206578775    0.2750183559   -1.4397367156
H       -1.2010000657    1.4793447245   -0.3386048126
O       -1.6718651192   -0.4855681944    0.0808863132
H       -1.3673806847   -0.7640595477    0.9710889862
