12   
Generated by ForceBalance from qchem.out: Frame 8 of 8
C        1.5965905342   -0.4682493860    0.1234694999
C        0.5996943893    0.5816976139   -0.3566757806
H        1.8348980872   -0.3177043639    1.1781222855
H        2.5282635010   -0.4200895493   -0.4426918436
H        1.1787820687   -1.4694561773    0.0096004205
H        1.0255184761    1.5800383757   -0.2135276986
C       -0.7230566728    0.5027491766    0.3884513236
H        0.3979803829    0.4679712865   -1.4235726882
H       -1.2999260154    1.4196111673    0.2431122915
H       -0.5580858577    0.3787982063    1.4621037183
O       -1.4817009988   -0.6436915792   -0.0862132888
H       -2.3227277452   -0.2920594728   -0.4475581361
