12   
Generated by ForceBalance from qchem.out: Frame 8 of 8
C        1.8606103839   -0.1602217914   -0.1397233724
C        0.5245658664    0.5328348999    0.1208520307
H        2.1059025859   -0.8644539000    0.6582470008
H        2.6741441278    0.5636181575   -0.2064021790
H        1.8244502242   -0.7160722180   -1.0779227286
H        0.5813279274    1.1518552865    1.0203731112
C       -0.6335656549   -0.4556027752    0.2295437217
H        0.2996028074    1.2003666849   -0.7143071714
H       -0.7209461639   -0.8555973451    1.2453546892
H       -0.4740854733   -1.2963960016   -0.4464348047
O       -1.8915326710    0.1092484286   -0.2092341158
H       -2.0562367119    0.8825638848    0.3768044351
