12   
Generated by ForceBalance from qchem.out: Frame 12 of 12
C        1.8999566258   -0.1299439861   -0.0398065503
C        0.5220570741    0.5170503959    0.0777889686
H        2.0754415372   -0.8413748717    0.7703349667
H        2.6904916716    0.6208215639    0.0003574440
H        1.9958349874   -0.6685072791   -0.9844776331
H        0.4421786921    1.1021823600    0.9959610295
C       -0.5984694886   -0.5048545751    0.0378539907
H        0.3649319147    1.2079196078   -0.7534574806
H       -0.6449371121   -1.0618617628    0.9785546364
H       -0.4295996285   -1.2259516105   -0.7694892499
O       -1.8375045200    0.2075405195   -0.2040130566
H       -2.5491869933   -0.3090583984    0.2338903905
