12   
Generated by ForceBalance from qchem.out: Frame 8 of 8
C        1.8589856926   -0.1488216611    0.1667386921
C        0.5329238184    0.4985684388   -0.2255154509
H        1.8101694046   -0.5345609824    1.1865144604
H        2.6773607891    0.5711027801    0.1173794903
H        2.1092856436   -0.9815896143   -0.4945392355
H        0.3051738622    1.3070273536    0.4725212622
C       -0.6342792599   -0.4760759892   -0.1647376887
H        0.5940911595    0.9474576800   -1.2187414670
H       -0.4643173326   -1.2246289476    0.6169220734
H       -0.7538450583   -1.0077702937   -1.1131196555
O       -1.8284381957    0.2808656284    0.1595175504
H       -2.5828111798   -0.1884487125   -0.2602481131
