12   
Generated by ForceBalance from qchem.out: Frame 8 of 8
C        1.4278730327   -0.5960092525    0.0520330346
C        0.6973774435    0.7392966343   -0.0654375451
H        1.2123168227   -1.0856364115    1.0021993672
H        2.5057327110   -0.4381532898   -0.0149546505
H        1.1241273014   -1.2729946874   -0.7433985569
H        1.0554274670    1.4335575539    0.6982523726
C       -0.8314183875    0.6219424210    0.0486986842
H        0.9554477060    1.1862886562   -1.0290388244
H       -1.3226170856    1.2580568599   -0.6907858505
H       -1.1628117542    0.9538896582    1.0367582007
O       -1.2544519061   -0.7590284934   -0.1080817028
H       -2.0258948871   -0.7490191220   -0.7146697726
