12   
Generated by ForceBalance from qchem.out: Frame 8 of 8
C        1.5668488289   -0.4781383174    0.1875953539
C        0.6097839129    0.5862186051   -0.3405239534
H        1.7480644832   -0.3318775352    1.2536801752
H        2.5284470889   -0.4416357196   -0.3268344504
H        1.1426246895   -1.4741004951    0.0525627809
H        1.0330751509    1.5796358722   -0.1633464271
C       -0.7631346262    0.5170982293    0.3137266084
H        0.4886644169    0.4967486250   -1.4248193259
H       -1.3085936495    1.4529423524    0.1481483184
H       -0.6806762237    0.3589226285    1.3893442179
O       -1.5555730588   -0.5910376803   -0.1770542984
H       -1.4472888201   -0.5798823951   -1.1544493654
