12   
Generated by ForceBalance from qchem.out: Frame 9 of 9
C        1.7562708844   -0.3676516994   -0.1135234487
C        0.5816202406    0.4752911462    0.3791610016
H        1.4883305868   -1.4258276233   -0.1431030059
H        2.6235416520   -0.2605052603    0.5403148592
H        2.0586299755   -0.0702563529   -1.1197566333
H        0.3101452970    0.1884201761    1.3961536745
C       -0.6760423538    0.3199698672   -0.4853948802
H        0.8811074543    1.5250596106    0.4174743686
H       -0.4841483178   -0.3468866097   -1.3297241466
H       -0.9948396507    1.2811909328   -0.8949216954
O       -1.7795021111   -0.1889209929    0.3146257568
H       -2.0536697382   -1.0395436618   -0.0895444737
