12   
Generated by ForceBalance from qchem.out: Frame 8 of 8
C        1.7588086906   -0.3619386418    0.1196569564
C        0.5822668934    0.4711063824   -0.3858517796
H        2.0561803828   -0.0520470718    1.1235666052
H        2.6282225482   -0.2584140902   -0.5318881342
H        1.4964513547   -1.4212278014    0.1609278902
H        0.8793825245    1.5209452677   -0.4381814922
C       -0.6778104142    0.3269705393    0.4797615956
H        0.3139556704    0.1717792525   -1.4002749481
H       -1.0052691027    1.2970517400    0.8572783048
H       -0.4860522721   -0.3118096332    1.3458530148
O       -1.7946493794   -0.1940730438   -0.2911626942
H       -1.9049007449   -1.1320233332   -0.0246985477
