12   
Generated by ForceBalance from qchem.out: Frame 8 of 8
C        1.6466113667   -0.4376150881   -0.1504130683
C        0.5935992710    0.5310065307    0.3799343935
H        1.2683551496   -1.4611743761   -0.1301819336
H        2.5603722104   -0.4008516551    0.4451365963
H        1.9067754267   -0.1931865942   -1.1817449652
H        0.3953495083    0.3454167880    1.4382581331
C       -0.7270772634    0.4394928942   -0.3851425015
H        0.9806511777    1.5521198946    0.3094804490
H       -0.5640596391    0.0990957193   -1.4079916419
H       -1.2201751350    1.4154986101   -0.4331068709
O       -1.6307196414   -0.5316605442    0.1985100506
H       -1.9829760179   -0.1066291926    1.0117866361
