12   
Generated by ForceBalance from qchem.out: Frame 8 of 8
C        1.7563873375   -0.3724447525   -0.0750774002
C        0.5950165977    0.5104258286    0.3750106161
H        1.4765737286   -1.4267392726   -0.0354874708
H        2.6321218699   -0.2314349873    0.5608162418
H        2.0467819866   -0.1394879869   -1.1013359742
H        0.3333848805    0.2993207291    1.4128195569
C       -0.6695577116    0.3084326578   -0.4671051562
H        0.9059554466    1.5577449671    0.3318416988
H       -0.4433331939   -0.2428826183   -1.3833228385
H       -1.0995360838    1.2687352847   -0.7607412709
O       -1.6534781726   -0.4629021330    0.2770887776
H       -2.4501122616    0.1029326752    0.3586532466
