12   
Generated by ForceBalance from qchem.out: Frame 8 of 8
C        1.8421891398   -0.1556414390    0.2247220176
C        0.5518663925    0.5336287122   -0.2146187647
H        1.7244435457   -0.5960500516    1.2166278958
H        2.6727716538    0.5509663435    0.2669505162
H        2.1211397633   -0.9548037450   -0.4656502894
H        0.2821407005    1.3023919885    0.5113743616
C       -0.6332823353   -0.4307930642   -0.3034370198
H        0.7014480825    1.0410317046   -1.1697683399
H       -0.3913796044   -1.3647879495    0.2112702447
H       -0.8737834942   -0.6806963344   -1.3405598955
O       -1.7981261082    0.1789103696    0.3169262163
H       -2.2087938834   -0.5112281747    0.8805637515
