12   
Generated by ForceBalance from qchem.out: Frame 12 of 12
C        1.4916795351   -0.5440077449    0.0732593239
C        0.6515141394    0.6803959497   -0.2756352316
H        1.5741058861   -0.6677925345    1.1551147217
H        2.4998836309   -0.4491525583   -0.3332363094
H        1.0337486412   -1.4435422463   -0.3334454615
H        1.1226798526    1.5946399840    0.0968705238
C       -0.7581082966    0.5990597050    0.2896045683
H        0.5907523568    0.7737338861   -1.3630884590
H       -1.3959541327    1.3668644118   -0.1554436358
H       -0.7415190459    0.7638425096    1.3719012009
O       -1.2970320732   -0.7273382003    0.0456206161
H       -2.2134345800   -0.6027364634   -0.2830623188
