12   
Generated by ForceBalance from qchem.out: Frame 9 of 9
C        1.4126768532   -0.5959725910   -0.0905157659
C        0.7000241437    0.7411020903    0.0855214263
H        1.0550405468   -1.3152894420    0.6426709713
H        2.4896645579   -0.4716038667    0.0341930813
H        1.2371451933   -1.0146672493   -1.0837512648
H        0.9214735194    1.1167777868    1.0876712907
C       -0.8204974938    0.6492805082   -0.0880518245
H        1.0891672389    1.4851000271   -0.6145250439
H       -1.0845667864    0.8338871596   -1.1325279909
H       -1.3274526648    1.4045985946    0.5165799550
O       -1.3214120183   -0.6548922598    0.3083657739
H       -1.7516026819   -1.0414872116   -0.4831302167
