12   
Generated by ForceBalance from qchem.out: Frame 12 of 12
C        1.8907563472   -0.1381214334    0.0038059255
C        0.5183543044    0.5304469286   -0.0276273101
H        2.0196495532   -0.7283165350    0.9134925061
H        2.6896620090    0.6040648803   -0.0283379492
H        2.0212332701   -0.8066269982   -0.8498331581
H        0.4072859677    1.2165847182    0.8146557340
C       -0.6110895602   -0.4805154289    0.0253863931
H        0.4051038482    1.1237947692   -0.9372851221
H       -0.5586303580   -1.0727899463    0.9444069995
H       -0.5353465923   -1.1709733210   -0.8195939339
O       -1.8747970999    0.2320792520   -0.0084563565
H       -2.4486503000   -0.2404633583   -0.6488302614
