12   
Generated by ForceBalance from qchem.out: Frame 7 of 7
C        1.4438137761   -0.5796015758    0.0859405010
C        0.6799247275    0.7225342478   -0.1380993814
H        1.3372514125   -0.9315213766    1.1134430742
H        2.5064956831   -0.4308724534   -0.1134447879
H        1.0702557728   -1.3599290953   -0.5731737643
H        1.1013594085    1.5286490663    0.4676985491
C       -0.8120650999    0.6132134259    0.1700867357
H        0.8076153061    1.0203830192   -1.1819128419
H       -1.3868084172    1.3246094592   -0.4312647071
H       -0.9928173843    0.8448936032    1.2256623711
O       -1.2420032037   -0.7445834384   -0.0919943360
H       -2.2025258380   -0.7666040350    0.1192056224
