12   
Generated by ForceBalance from qchem.out: Frame 12 of 12
C       -1.7470273529   -0.0199925217    0.3748272205
C       -0.5666992127    0.3363193751   -0.5264163974
H       -2.0701214250   -1.0461324511    0.1931003264
H       -2.5987970848    0.6377094001    0.1934570230
H       -1.4732814168    0.0628690528    1.4284968633
H       -0.8747706292    0.2290118845   -1.5696745512
C        0.6710406256   -0.5338053994   -0.2726798661
H       -0.2982184331    1.3902883560   -0.4078017905
H        1.1067348016   -0.8655618466   -1.2182712504
H        0.4000823578   -1.4243576557    0.3003229755
O        1.7294215975    0.1445543296    0.4536097611
H        1.4098051721    1.0539306195    0.6332565522
