12   
Generated by ForceBalance from qchem.out: Frame 7 of 7
C        1.5850801185   -0.4775449453   -0.0971341605
C        0.5940121029    0.5933268774    0.3467352255
H        1.1456884086   -1.4697161986    0.0145150392
H        2.5035496352   -0.4404584189    0.4909028196
H        1.8508134070   -0.3409272283   -1.1468789351
H        0.3924321536    0.5149781016    1.4185662601
C       -0.7262479289    0.5064705220   -0.4074295116
H        1.0288759604    1.5845864409    0.1831452395
H       -0.5561663594    0.3173001246   -1.4678212217
H       -1.2893014758    1.4410696023   -0.3181929994
O       -1.5379338929   -0.6025376562    0.0519168237
H       -1.9028739684   -0.3196907445    0.9199593776
