12   
Generated by ForceBalance from qchem.out: Frame 9 of 9
C        1.4312820575   -0.5948164500   -0.0348099462
C        0.6908063945    0.7339915883    0.0964275931
H        1.0894379747   -1.3044932727    0.7157259465
H        2.5030296686   -0.4358906764    0.0973751656
H        1.2704762174   -1.0457172521   -1.0141548675
H        0.8906401614    1.1404807494    1.0907654033
C       -0.8278045534    0.6261299713   -0.1078200882
H        1.0924571230    1.4592990412   -0.6148084125
H       -1.0989723883    1.0160399717   -1.0938845577
H       -1.3673831356    1.2157091941    0.6397812509
O       -1.2268112073   -0.7650745071   -0.0278424552
H       -2.1355674995   -0.8039893377   -0.4010947542
