12   
Generated by ForceBalance from qchem.out: Frame 8 of 8
C        1.7310375697   -0.4026450196    0.0895986533
C        0.5939259291    0.5101224391   -0.3619523594
H        2.0279069288   -0.1755879067    1.1153909557
H        2.6100812451   -0.2866705712   -0.5468028892
H        1.4229958490   -1.4493584882    0.0502569495
H        0.9285987495    1.5493180543   -0.3081765049
C       -0.6760133834    0.3374099769    0.4690785426
H        0.3299610801    0.3160768457   -1.4026445856
H       -1.1144743479    1.3050847618    0.7325024359
H       -0.4600834337   -0.1945350658    1.4001701056
O       -1.6327540397   -0.4083596711   -0.3305573058
H       -2.1888088724   -0.9186377209    0.2989220203
