12   
Generated by ForceBalance from qchem.out: Frame 12 of 12
C        1.5066424347   -0.5098739725   -0.1863085044
C        0.6299190201    0.6514679778    0.2720572903
H        1.0765087067   -1.4619998328    0.1240724208
H        2.5127851954   -0.4336192165    0.2287149241
H        1.5891088007   -0.5217146411   -1.2745901218
H        0.6020585500    0.6940831028    1.3661529127
C       -0.7953200015    0.5494930713   -0.2479538452
H        1.0562193409    1.6026885532   -0.0601944109
H       -0.8106677513    0.4968001484   -1.3372559629
H       -1.3752488299    1.4267829138    0.0595619015
O       -1.4605612219   -0.6578582983    0.1934414359
H       -1.2516149143   -0.7401311915    1.1516093831
