12   
Generated by ForceBalance from qchem.out: Frame 11 of 11
C        1.4234494939   -0.5717827715    0.0783774810
C        0.6566673425    0.7238848352   -0.1789775402
H        1.3021058756   -0.9046579844    1.1102631950
H        2.4880159000   -0.4263323691   -0.1115260907
H        1.0794882630   -1.3778895523   -0.5684283661
H        1.0960809251    1.5469802913    0.3896730993
C       -0.8347430460    0.6366669039    0.1628357712
H        0.7698780660    0.9890338550   -1.2347983465
H       -1.4029344802    1.3681342080   -0.4211411084
H       -0.9939637397    0.8569742856    1.2190451907
O       -1.4030931975   -0.6835581930    0.0018146287
H       -1.0702171660   -1.0228706497   -0.8591885227
