12   
Generated by ForceBalance from qchem.out: Frame 9 of 9
C        1.7587860424   -0.3623438803   -0.1192881048
C        0.5822233970    0.4706722042    0.3862084546
H        1.4949082447   -1.4211041519   -0.1645114123
H        2.6267282803   -0.2623933062    0.5347725128
H        2.0589960853   -0.0497896116   -1.1215098846
H        0.3130779249    0.1706500120    1.4001936147
C       -0.6775240238    0.3274177303   -0.4800942170
H        0.8797134600    1.5203435640    0.4392074230
H       -0.4856556654   -0.3102814088   -1.3469425144
H       -1.0049662642    1.2980123804   -0.8563114652
O       -1.7947620440   -0.1938346721    0.2900826315
H       -1.9051857278   -1.1316059991    0.0230334231
