12   
Generated by ForceBalance from qchem.out: Frame 9 of 9
C        1.3944439966   -0.6094158022   -0.0313655770
C        0.6960256133    0.7464219898    0.0344005767
H        1.0593466484   -1.2544934651    0.7785143162
H        2.4751824251   -0.4808094394    0.0471826816
H        1.1899439886   -1.1222702045   -0.9730597442
H        0.9714019791    1.2274204538    0.9756595405
C       -0.8421070956    0.6568364611   -0.0547096923
H        1.0675918671    1.3975066165   -0.7607659872
H       -1.1930690634    1.0274249097   -1.0214087183
H       -1.3080570820    1.2699282958    0.7165064320
O       -1.3573506848   -0.6811071761    0.1615225296
H       -1.3905843391   -1.1068602062   -0.7226355057
