12   
Generated by ForceBalance from qchem.out: Frame 8 of 8
C        1.5425254750   -0.5184554911   -0.1146129625
C        0.6217607001    0.6231280539    0.3046629293
H        1.0908122291   -1.4815150844    0.1291481920
H        2.5056142387   -0.4627974338    0.3951384757
H        1.7300393039   -0.4912138347   -1.1902400589
H        0.4689800369    0.6181194869    1.3855129200
C       -0.7438567326    0.5464635896   -0.3578608350
H        1.0836171874    1.5816406498    0.0481693740
H       -0.6499679696    0.3876571348   -1.4356432961
H       -1.2947031934    1.4767043151   -0.2036731105
O       -1.5465335867   -0.4990376314    0.2533909192
H       -1.5613719208   -1.2498436654   -0.3784633502
