12   
Generated by ForceBalance from qchem.out: Frame 8 of 8
C        1.8573299107   -0.1511382530    0.1807742305
C        0.5292253518    0.5191711367   -0.1662603016
H        1.7939006042   -0.6540911635    1.1475977979
H        2.6665573690    0.5787856777    0.2339779312
H        2.1333618653   -0.8987673521   -0.5661354547
H        0.2763282746    1.2382909545    0.6167177578
C       -0.6247807495   -0.4793847277   -0.2638516345
H        0.6095727598    1.0881586497   -1.0942148640
H       -0.4287331454   -1.3480272682    0.3722529533
H       -0.7486264668   -0.8427784615   -1.2846986547
O       -1.8932720375    0.1208485714    0.1004909988
H       -1.9881625102   -0.0178690382    1.0678567459
