12   
Generated by ForceBalance from qchem.out: Frame 12 of 12
C        1.7538346708   -0.3679212758    0.1157868153
C        0.5786232286    0.4700342374   -0.3833287009
H        2.0482547883   -0.0708187258    1.1244919605
H        2.6246538034   -0.2549926862   -0.5323588057
H        1.4896679209   -1.4270304171    0.1411771721
H        0.8767534183    1.5196810747   -0.4337493399
C       -0.6754446746    0.3204612953    0.4845340094
H        0.3052123443    0.1706182135   -1.3961335733
H       -0.9884594378    1.2805142750    0.9041784831
H       -0.4819436527   -0.3558597094    1.3213955182
O       -1.7623309547   -0.1972686476   -0.3315963060
H       -2.1964481806   -0.9051999995    0.1913887852
