12   
Generated by ForceBalance from qchem.out: Frame 9 of 9
C        1.4282058926   -0.5781903282   -0.0908378072
C        0.6817513891    0.7372283907    0.1132650297
H        1.0788675619   -1.3286008941    0.6146082657
H        2.4991590090   -0.4290288972    0.0573171045
H        1.2763369955   -0.9702477175   -1.0979514601
H        0.8698959850    1.0832909473    1.1328336495
C       -0.8260480534    0.6223687873   -0.1024639245
H        1.0701185906    1.5114719444   -0.5531003648
H       -1.0674992506    0.8048270841   -1.1555733655
H       -1.3621701942    1.3652084873    0.4965765313
O       -1.2449394171   -0.7183324003    0.2494770898
H       -2.2161625311   -0.7443676433    0.0954293374
