12   
Generated by ForceBalance from qchem.out: Frame 12 of 12
C       -1.7364933876   -0.1835032579    0.3328189858
C       -0.5654888461   -0.0034472986   -0.6313561459
H       -1.4592927820   -0.8155007365    1.1795310839
H       -2.5921644683   -0.6448235993   -0.1631232168
H       -2.0576272271    0.7808308354    0.7296634624
H       -0.2889381555   -0.9540811306   -1.0946974488
C        0.6785723465    0.5951448871    0.0358721750
H       -0.8843392117    0.6443381987   -1.4520509707
H        0.4071514731    1.0704584666    0.9845489336
H        1.1415659111    1.3531673136   -0.5966175226
O        1.7279999928   -0.3779109690    0.2693934219
H        1.2757383509   -1.2390833883    0.4076247541
