12   
Generated by ForceBalance from qchem.out: Frame 8 of 8
C        1.8932169231   -0.1366575264    0.0183659321
C        0.5151645559    0.5200007001   -0.0077753232
H        2.0051086403   -0.7793279344    0.8941935014
H        2.6842409347    0.6138630011    0.0520645263
H        2.0531655673   -0.7509773874   -0.8701601065
H        0.3711361135    1.1399031860    0.8793283198
C       -0.6032883333   -0.5016203980   -0.0588488185
H        0.4218002866    1.1782525495   -0.8741931232
H       -0.5502244909   -1.1566816957    0.8164249223
H       -0.5172734696   -1.1291952212   -0.9525474793
O       -1.8613308663    0.2177755984   -0.0804113655
H       -2.5216634947   -0.3600602505    0.3609526165
