12   
Generated by ForceBalance from qchem.out: Frame 7 of 7
C        1.4578222207   -0.5576040533   -0.0880740720
C        0.6443131663    0.6885809343    0.2444728279
H        1.0108874206   -1.4391175492    0.3681209598
H        2.4833661031   -0.4599781880    0.2715085395
H        1.4908264151   -0.7241018924   -1.1665032968
H        0.6317090440    0.8319274610    1.3298021036
C       -0.7890146969    0.6055083218   -0.2680042673
H        1.1119337306    1.5824111029   -0.1787738801
H       -0.8005692463    0.6790229477   -1.3565090822
H       -1.3982588547    1.4226584355    0.1304685384
O       -1.4068250371   -0.6748630432    0.0045143664
H       -1.6210652167   -0.6724164176    0.9650889920
