12   
Generated by ForceBalance from qchem.out: Frame 8 of 8
C        1.6300608822   -0.4599960506    0.0567350067
C        0.6087038134    0.5985965599   -0.3455460682
H        1.9056635753   -0.3471021183    1.1068769073
H        2.5400047118   -0.3838750389   -0.5407597965
H        1.2134251540   -1.4589857509   -0.0787420399
H        1.0293121455    1.5953029805   -0.1774907250
C       -0.6896083292    0.4732266082    0.4399768451
H        0.3782771389    0.5289259049   -1.4115106534
H       -1.2753109208    1.3951405066    0.3803501530
H       -0.4855673235    0.2751695830    1.4934177071
O       -1.4821714301   -0.6490765786   -0.0275414534
H       -2.0601255806   -0.2924159585   -0.7369746554
