12   
Generated by ForceBalance from qchem.out: Frame 12 of 12
C       -1.8130504025   -0.0382547881    0.3042647818
C       -0.5509756207    0.2898208183   -0.4908663515
H       -2.0892533129   -1.0879566087    0.1872836364
H       -2.6577962498    0.5676842713   -0.0270769071
H       -1.6558787949    0.1497915033    1.3675432108
H       -0.7314786267    0.1712511800   -1.5613705494
C        0.6559838118   -0.5501957509   -0.0516145409
H       -0.3174322050    1.3487531703   -0.3402181129
H        0.8741086700   -1.3389053535   -0.7737539589
H        0.4367427944   -1.0300608670    0.9077761878
O        1.8803014314    0.2092632993    0.1089456778
H        1.6211271465    1.1548233212    0.1332621517
