12   
Generated by ForceBalance from qchem.out: Frame 8 of 8
C        1.4529624340   -0.5783547130   -0.0683028263
C        0.6904523026    0.7222271542    0.1676334129
H        1.0671436414   -1.3663923259    0.5742793952
H        2.5141796403   -0.4387436035    0.1444491669
H        1.3555469232   -0.9141824057   -1.1022542474
H        0.8114774994    1.0047502863    1.2169847705
C       -0.8002823284    0.6135355459   -0.1535098267
H        1.1161688581    1.5364596463   -0.4245222783
H       -0.9735200184    0.8420008346   -1.2097456005
H       -1.3758730143    1.3295003750    0.4377555127
O       -1.2642150582   -0.7428581024    0.0793061908
H       -2.1138088755   -0.6701513634    0.5654386084
