12   
Generated by ForceBalance from qchem.out: Frame 12 of 12
C        1.5099734196   -0.5252031561   -0.1386051337
C        0.6411653280    0.6581615613    0.2738553647
H        1.0670509514   -1.4571819626    0.2114928806
H        2.5147093348   -0.4406552231    0.2785628219
H        1.5995164402   -0.5792595654   -1.2255110021
H        0.5912367417    0.7259184714    1.3633021860
C       -0.7725847523    0.5432027893   -0.2681673305
H        1.0793209797    1.5940638038   -0.0871100798
H       -0.7595633325    0.4772805813   -1.3597538325
H       -1.3646208228    1.4196781508    0.0070272362
O       -1.3919457278   -0.6703890204    0.2386851526
H       -2.1850384608   -0.3912867478    0.7439125727
