12   
Generated by ForceBalance from qchem.out: Frame 7 of 7
C        1.4882581632   -0.5521561204   -0.0950620513
C        0.6723741886    0.6922024936    0.2388953228
H        1.0546226032   -1.4265481698    0.3863406684
H        2.5198762333   -0.4407899663    0.2426005057
H        1.5029915258   -0.7341208889   -1.1717062667
H        0.6826243035    0.8451912242    1.3216886528
C       -0.7714697408    0.5836027319   -0.2306769707
H        1.1182876073    1.5841338727   -0.2109800352
H       -0.8173927180    0.6717937160   -1.3199409373
H       -1.3810386103    1.3848975287    0.1936954381
O       -1.3158676532   -0.7197815244    0.1092024367
H       -2.0864350312   -0.5603061338    0.6952934933
