12   
Generated by ForceBalance from qchem.out: Frame 12 of 12
C        1.7787101749   -0.2224027890    0.2731387098
C        0.5776764315    0.5815135675   -0.2185740528
H        1.5246944772   -0.7803460846    1.1761942695
H        2.6247916374    0.4272820477    0.5037774875
H        2.1030179059   -0.9380278554   -0.4848119970
H        0.2823603913    1.3201076863    0.5283575062
C       -0.6456937550   -0.2962731038   -0.5122220148
H        0.8632936044    1.1353606264   -1.1172040136
H       -0.3668419261   -1.3517381658   -0.5331449589
H       -1.0821404480   -0.0544605697   -1.4842049158
O       -1.6526949417   -0.1626273498    0.5275835924
H       -2.3690490243    0.3904230554    0.1490084984
