12   
Generated by ForceBalance from qchem.out: Frame 9 of 9
C        1.4273061847   -0.5778425056    0.0302263049
C        0.6788063432    0.7428424720   -0.1386298515
H        1.2779462540   -0.9938439729    1.0267369700
H        2.4967980127   -0.4252168460   -0.1232561275
H        1.0936217481   -1.3233484010   -0.6910227682
H        1.1057154649    1.4982378868    0.5247973096
C       -0.8352929054    0.6431264248    0.1327100608
H        0.8446468404    1.1058651954   -1.1568200939
H       -1.3975281010    1.2462288680   -0.5868409865
H       -1.0663141540    1.0194547025    1.1290067192
O       -1.3518409077   -0.7077950073    0.1631449851
H       -1.1631305434   -1.0931259577   -0.7221031308
