12   
Generated by ForceBalance from qchem.out: Frame 8 of 8
C        1.8030622202   -0.2175159203   -0.2143392137
C        0.5474162940    0.5678300607    0.1580947107
H        2.1148087765   -0.8710578377    0.6030083850
H        2.6354975195    0.4500064319   -0.4433121296
H        1.6180145001   -0.8410188477   -1.0906638151
H        0.7607111512    1.2222392108    1.0071881612
C       -0.6525469784   -0.3415354608    0.4645551272
H        0.2599695851    1.2125938444   -0.6744760315
H       -0.9701725545   -0.2550431790    1.5069650405
H       -0.3899734615   -1.3860385938    0.2896003046
O       -1.7715582505   -0.0919375978   -0.4248583774
H       -2.3172638247    0.5998054969    0.0096374915
