12   
Generated by ForceBalance from qchem.out: Frame 8 of 8
C        1.4678594457   -0.5594695786    0.1230435321
C        0.6678144372    0.6933566107   -0.2163761905
H        1.4359938600   -0.7650343702    1.1949948366
H        2.5130921293   -0.4431758345   -0.1677956477
H        1.0540636169   -1.4229899084   -0.3942260361
H        1.0984977784    1.5741865229    0.2690481336
C       -0.7930669810    0.5791262443    0.2001018872
H        0.7213472341    0.8717156329   -1.2944181669
H       -1.3879040340    1.3974425486   -0.2131003236
H       -0.8705642530    0.6290480727    1.2889001684
O       -1.3510019319   -0.7083355008   -0.1725277594
H       -1.9283820927   -0.5493032471   -0.9504912276
