12   
Generated by ForceBalance from qchem.out: Frame 8 of 8
C        1.4179037743   -0.5822204941   -0.0037976987
C        0.6863942256    0.7578557631   -0.0644618871
H        1.1636921825   -1.1277081973    0.9041287341
H        2.4967200887   -0.4205645427   -0.0213092744
H        1.1726249345   -1.2174402600   -0.8567587992
H        1.0589313362    1.3971753148    0.7387185861
C       -0.8518195742    0.6465600838    0.0528410149
H        0.9453975464    1.2627078959   -0.9982999673
H       -1.3351674640    1.1213364251   -0.8066111607
H       -1.2084232493    1.1524042845    0.9490186699
O       -1.3508364420   -0.7036760041    0.2007498863
H       -1.0593156449   -1.1902491743   -0.6021869232
