12   
Generated by ForceBalance from qchem.out: Frame 12 of 12
C        1.8231204229   -0.1469208032    0.2457738367
C        0.5486661822    0.4670615667   -0.3289669336
H        1.6842636840   -0.3988778894    1.2985058153
H        2.6622672696    0.5468090717    0.1723590849
H        2.1006941475   -1.0610208401   -0.2838469235
H        0.2920746422    1.3634326764    0.2389362454
C       -0.6552573979   -0.4689097300   -0.2366603512
H        0.7065110114    0.7843136321   -1.3616641232
H       -0.4565940829   -1.2827727399    0.4689921455
H       -0.8817903945   -0.9208112458   -1.2062840750
O       -1.7875847598    0.3015509022    0.2442074877
H       -2.5922775248   -0.1092356909   -0.1422584762
