12   
Generated by ForceBalance from qchem.out: Frame 12 of 12
C        1.5969189869   -0.4735898644    0.0875306513
C        0.6021305309    0.5916124065   -0.3692632161
H        1.8008202703   -0.3809266028    1.1562573231
H        2.5447337068   -0.3820526543   -0.4450146922
H        1.2191817834   -1.4816784421   -0.0970721668
H        1.0353142912    1.5812527731   -0.1962062335
C       -0.7331191713    0.5153905296    0.3575734097
H        0.4124625009    0.5081579921   -1.4414976154
H       -1.3352362040    1.4002173184    0.1506494312
H       -0.5776200664    0.4563442161    1.4408008128
O       -1.5524932764   -0.5865741297   -0.0977384516
H       -1.0306953149   -1.4013211864    0.0784816187
