12   
Generated by ForceBalance from qchem.out: Frame 8 of 8
C        1.4329727305   -0.5775670658    0.1246895913
C        0.6819653317    0.7182600685   -0.1605259891
H        1.3358901177   -0.8671342733    1.1736571685
H        2.4960447141   -0.4636300379   -0.0935664084
H        1.0347661840   -1.3854487263   -0.4855238615
H        1.1091021693    1.5527444551    0.4028898985
C       -0.8024953860    0.6276289079    0.1670422382
H        0.7940403165    0.9658425050   -1.2192994758
H       -1.3530958355    1.4649760755   -0.2712422922
H       -0.9393449306    0.6688835005    1.2516925937
O       -1.3402033731   -0.6199830282   -0.3437388505
H       -1.8988306066   -0.9971912845    0.3689110494
