12   
Generated by ForceBalance from qchem.out: Frame 8 of 8
C        1.4615813684   -0.5737625454    0.0830957859
C        0.6933577024    0.7184366989   -0.1750116059
H        1.3675321520   -0.8888462010    1.1237866543
H        2.5217473499   -0.4369337876   -0.1365103930
H        1.0759209524   -1.3776107811   -0.5400543423
H        1.1149600568    1.5449929660    0.4030411736
C       -0.7970195402    0.6045053707    0.1567794977
H        0.8135785001    0.9869939057   -1.2288438042
H       -1.3870309200    1.3268269866   -0.4119795027
H       -0.9509103706    0.8168569893    1.2170999037
O       -1.3010057090   -0.7434032166   -0.0322353312
H       -1.8275689658   -0.7345728779   -0.8609916708
