12   
Generated by ForceBalance from qchem.out: Frame 7 of 7
C        1.5144995923   -0.5215809780    0.1217074128
C        0.6424433658    0.6561541544   -0.3014139613
H        1.6244067267   -0.5523635472    1.2077683430
H        2.5115191486   -0.4472310555   -0.3155383108
H        1.0647045471   -1.4601035179   -0.1998673277
H        1.0926640190    1.5990497670    0.0229853788
C       -0.7588813849    0.5723915713    0.2700204671
H        0.5655797610    0.6935868682   -1.3902935002
H       -1.3524622717    1.4347403639   -0.0501752383
H       -0.7298959885    0.5666991620    1.3656516325
O       -1.3521190670   -0.6563438651   -0.2176813531
H       -2.3179540989   -0.5819278088   -0.0492341083
