12   
Generated by ForceBalance from qchem.out: Frame 8 of 8
C        1.8167236665   -0.2353926578   -0.2105381104
C        0.5793923504    0.5861287017    0.1443734491
H        2.1040156731   -0.8917890452    0.6135012195
H        2.6685552934    0.4083494865   -0.4363063422
H        1.6235087214   -0.8594577303   -1.0847573390
H        0.8017652634    1.2415470389    0.9901468485
C       -0.6479942842   -0.2864560408    0.4451764730
H        0.3144677613    1.2315033729   -0.6948294197
H       -0.9786711204   -0.1743400345    1.4803330983
H       -0.4082526830   -1.3409451813    0.2931138415
O       -1.7415556048    0.0022971152   -0.4673796919
H       -2.3995172069    0.5240006395    0.0403882965
