12   
Generated by ForceBalance from qchem.out: Frame 8 of 8
C        1.4906032726   -0.5445608213   -0.0835712508
C        0.6518236431    0.6800744503    0.2685143497
H        1.0353350939   -1.4445166377    0.3251042853
H        2.4999897021   -0.4486780772    0.3198121889
H        1.5698716584   -0.6681745373   -1.1656611163
H        0.6027975012    0.7783283965    1.3558516351
C       -0.7641029644    0.5966669697   -0.2778576130
H        1.1170819208    1.5933020401   -0.1134819439
H       -0.7665111657    0.7677609455   -1.3601063104
H       -1.3964869444    1.3597439539    0.1846268295
O       -1.2818547742   -0.7320653573   -0.0122556483
H       -2.2537684061   -0.6349757038    0.0934763380
