12   
Generated by ForceBalance from qchem.out: Frame 11 of 11
C        1.4521409839   -0.5569847763   -0.0891405854
C        0.6828396155    0.7496132944    0.0956139883
H        1.1945888042   -1.2862217917    0.6785840757
H        2.5256572216   -0.3730593568   -0.0227238137
H        1.2388622432   -1.0090319510   -1.0578716684
H        0.9047232695    1.1439497866    1.0911976434
C       -0.8424772696    0.6062880810   -0.0743696605
H        1.0468530457    1.4966988368   -0.6132064340
H       -1.1472754130    0.9512964611   -1.0621088323
H       -1.3725982242    1.2136415612    0.6657093731
O       -1.3244928738   -0.7571874564   -0.0380062343
H       -1.0691909701   -1.1142638142    0.8423847177
