12   
Generated by ForceBalance from qchem.out: Frame 12 of 12
C        1.7768451307   -0.2223355804    0.2724133201
C        0.5755132162    0.5842762749   -0.2140642676
H        1.5211650260   -0.7887298280    1.1696945777
H        2.6220153849    0.4258230151    0.5105029516
H        2.1026639904   -0.9306116064   -0.4916895203
H        0.2821804643    1.3172988211    0.5396933247
C       -0.6465809596   -0.2940615075   -0.5158587428
H        0.8610143920    1.1462560679   -1.1077269881
H       -0.3690900308   -1.3489893584   -0.5314291354
H       -1.0783867236   -0.0541749651   -1.4911990982
O       -1.6641788515   -0.1828401030    0.5130613552
H       -2.2511044893    0.5531852443    0.2333954957
