12   
Generated by ForceBalance from qchem.out: Frame 7 of 7
C        1.5782423214   -0.4618675160    0.1343941217
C        0.6094505934    0.6116508904   -0.3590470700
H        1.7449246257   -0.3669775842    1.2091030905
H        2.5441842311   -0.3788229690   -0.3660306254
H        1.2027188027   -1.4697736154   -0.0570194964
H        1.0405877584    1.5964942639   -0.1571856667
C       -0.7580363863    0.5388986472    0.3055529884
H        0.4711567706    0.5411454726   -1.4404750587
H       -1.3431442971    1.4323989300    0.0867965065
H       -0.6460115415    0.4629314244    1.3933144543
O       -1.5665828616   -0.5538422595   -0.1903032880
H       -0.9729736641   -1.3367110847   -0.2236918941
