12   
Generated by ForceBalance from qchem.out: Frame 8 of 8
C        1.4184919355   -0.5906300203    0.0399989402
C        0.6853885375    0.7416412737   -0.0948270692
H        1.2541425529   -1.0379183091    1.0207387462
H        2.4913807518   -0.4405715330   -0.0926169347
H        1.0704097788   -1.3000105833   -0.7076754442
H        1.0917354926    1.4686433790    0.6121604128
C       -0.8333705276    0.6372978796    0.1195694166
H        0.8841726269    1.1420264252   -1.0923218033
H       -1.3680566219    1.2403859635   -0.6174435122
H       -1.1022631411    1.0168486623    1.1094548794
O       -1.2675276818   -0.7475994853    0.0546375325
H       -2.0752589230   -0.7626065411   -0.5026193947
