12   
Generated by ForceBalance from qchem.out: Frame 12 of 12
C        1.8180926924   -0.1531935251    0.2527339706
C        0.5495049519    0.4686948073   -0.3263160163
H        1.6706567668   -0.4153690676    1.3018397452
H        2.6589651784    0.5397772077    0.1928857060
H        2.0981011272   -1.0623552509   -0.2840399982
H        0.2886296001    1.3598144873    0.2478994780
C       -0.6552871643   -0.4667269590   -0.2552375215
H        0.7172843967    0.7952408917   -1.3544194472
H       -0.4617650609   -1.2910125948    0.4403035978
H       -0.8796617520   -0.9036088330   -1.2331068289
O       -1.7810550416    0.3108552209    0.2246361045
H       -2.5863157350   -0.2218284796    0.0359682313
