12   
Generated by ForceBalance from qchem.out: Frame 8 of 8
C        1.7665721653   -0.3704737894    0.0387728151
C        0.5685745112    0.5606145379    0.2165714473
H        1.5190379830   -1.3870550713    0.3517205354
H        2.6203292400   -0.0373802454    0.6314399607
H        2.0813148860   -0.4098950537   -1.0060597156
H        0.2764373635    0.6055388485    1.2669447922
C       -0.6667114672    0.1168185971   -0.5803337428
H        0.8530530043    1.5748380377   -0.0724383280
H       -0.4456642392   -0.7670759833   -1.1842832781
H       -0.9941720738    0.9032624774   -1.2623457204
O       -1.7981098592   -0.1423592119    0.2948483784
H       -1.8918560654   -1.1176371309    0.3496863316
