12   
Generated by ForceBalance from qchem.out: Frame 8 of 8
C        1.6251631414   -0.4557010188    0.1396702148
C        0.6029537798    0.5509768647   -0.3790771447
H        1.8919605607   -0.2372220625    1.1755204447
H        2.5404634737   -0.4361402564   -0.4543196733
H        1.2177190930   -1.4675036122    0.0990465559
H        1.0203942339    1.5591328074   -0.3032796094
C       -0.7129306823    0.4986694319    0.3825750487
H        0.3794683085    0.3769127270   -1.4330548144
H       -1.2089113939    1.4747340476    0.3800368881
H       -0.5466674805    0.2086880133    1.4241707951
O       -1.5687300205   -0.4621611393   -0.2912787494
H       -2.1521351537   -0.8525080754    0.3965764749
