12   
Generated by ForceBalance from qchem.out: Frame 7 of 7
C        1.7189317971   -0.3742862720   -0.1531319966
C        0.5867788272    0.4572515629    0.4443443409
H        1.4024203258   -1.4097319406   -0.2919623386
H        2.5961863704   -0.3737772213    0.4961802911
H        2.0214884961    0.0200006304   -1.1251697032
H        0.3195086380    0.0892652501    1.4361498610
C       -0.6835450874    0.4339330228   -0.4028102371
H        0.9259281120    1.4884759147    0.5697083431
H       -0.4779685057    0.0583245737   -1.4108151012
H       -1.1106410364    1.4373798668   -0.5004299405
O       -1.6317362121   -0.4303528671    0.2736391827
H       -2.4437581251   -0.4358621922   -0.2824039895
