12   
Generated by ForceBalance from qchem.out: Frame 11 of 11
C        1.4109547645   -0.5831195082   -0.0487467546
C        0.6702210743    0.7447871627    0.1056936631
H        1.1574642203   -1.2848468008    0.7467357233
H        2.4883352618   -0.4181392690   -0.0001658235
H        1.1783419941   -1.0605289264   -1.0008956417
H        0.8914342027    1.1484354983    1.0974435639
C       -0.8575756422    0.6457342314   -0.0788537604
H        1.0636697771    1.4694049491   -0.6103826931
H       -1.1448179564    0.9956112514   -1.0703119515
H       -1.3697774819    1.2754199177    0.6555536431
O       -1.3908521019   -0.6983382869   -0.0283818691
H       -0.9621279298   -1.1376363029    0.7388938877
