12   
Generated by ForceBalance from qchem.out: Frame 7 of 7
C        1.6495844936   -0.4207132597   -0.1381947183
C        0.6002945770    0.5470103489    0.4065177086
H        1.2947413267   -1.4539223633   -0.1101741979
H        2.5716673514   -0.3760726434    0.4436012923
H        1.8928365007   -0.1803613486   -1.1747080080
H        0.3924343758    0.3554099718    1.4610699012
C       -0.7228922825    0.4876239834   -0.3523892110
H        0.9991274424    1.5635217405    0.3434573076
H       -0.5536287958    0.2881166681   -1.4161267658
H       -1.2591633325    1.4328534501   -0.2689227363
O       -1.6423263682   -0.4800857408    0.2087998655
H       -1.1850111230   -1.3495719023    0.1515438545
