12   
Generated by ForceBalance from qchem.out: Frame 10 of 10
C        1.4542236895   -0.5488398985    0.0669308418
C        0.6640406181    0.7513356049   -0.0850550280
H        1.2328364192   -1.0476781034    1.0117252786
H        2.5243128592   -0.3391777505    0.0390996518
H        1.2524944905   -1.2481451704   -0.7473171051
H        1.0307358670    1.4800221954    0.6406244506
C       -0.8635986070    0.6130582684    0.0894335245
H        0.8810084898    1.1678547824   -1.0715981418
H       -1.3798795632    1.2094406658   -0.6678474037
H       -1.1629568894    0.9925136022    1.0679959867
O       -1.3835162117   -0.7381655952    0.0345380813
H       -0.6808566068   -1.3047426554   -0.3457473845
