12   
Generated by ForceBalance from qchem.out: Frame 12 of 12
C        1.4320415643   -0.5932251051    0.0117107179
C        0.6934486554    0.7417066920    0.0659285513
H        1.0692032881   -1.2654164079    0.7868161264
H        2.5025268722   -0.4377344945    0.1551694861
H        1.2961413069   -1.0895142117   -0.9510526325
H        0.9035310558    1.2096637534    1.0302997642
C       -0.8344648138    0.6124718881   -0.1094395758
H        1.0891060052    1.4191171732   -0.6948348515
H       -1.1420725395    0.9937058591   -1.0867282932
H       -1.3590327641    1.1965689987    0.6464804700
O       -1.3229356917   -0.7432191668    0.0514731451
H       -1.2959961498   -1.1507111816   -0.8414453448
