12   
Generated by ForceBalance from qchem.out: Frame 8 of 8
C        1.6278261345   -0.4234659068    0.2099671015
C        0.5917505947    0.5215798959   -0.3947558722
H        1.8651276671   -0.1228286903    1.2314660072
H        2.5541123880   -0.4210721328   -0.3669280502
H        1.2533153228   -1.4487214601    0.2428289519
H        0.9897488004    1.5399778187   -0.3719062188
C       -0.7437508293    0.4990588408    0.3446841627
H        0.4160495650    0.2955507299   -1.4507634237
H       -1.2409527226    1.4688345320    0.2611712847
H       -0.5912874673    0.2884979637    1.4063750964
O       -1.6722652176   -0.4880922269   -0.1765439228
H       -1.2145643124   -0.9385391133   -0.9182338571
