12   
Generated by ForceBalance from qchem.out: Frame 7 of 7
C        1.5269437011   -0.4943040511   -0.1469739186
C        0.6122848353    0.6497970337    0.2894755400
H        1.1915119667   -1.4618863419    0.2312617637
H        2.5408141014   -0.3413046434    0.2255823079
H        1.5722896163   -0.5614583591   -1.2357898174
H        0.5431328383    0.6748588098    1.3807710933
C       -0.7910884651    0.5624043352   -0.2914987901
H        1.0491728815    1.6032836311   -0.0194016653
H       -0.7391942596    0.6106692552   -1.3844273846
H       -1.4011577466    1.3985294590    0.0560981938
O       -1.4989748741   -0.6458393536    0.0778511634
H       -0.8295749634   -1.2683246654    0.4327062742
