12   
Generated by ForceBalance from qchem.out: Frame 9 of 9
C        1.4389396123   -0.5929030839   -0.0245837286
C        0.7121712636    0.7483000437    0.0298344104
H        1.1842730387   -1.2153531248    0.8326602449
H        2.5186299163   -0.4330464882   -0.0205231244
H        1.1732660933   -1.1478896279   -0.9230458643
H        1.0161556845    1.2806966808    0.9347772022
C       -0.8269579262    0.6234893670   -0.0045203100
H        1.0380580604    1.3676609037   -0.8086177765
H       -1.2237713464    1.1099121177   -0.8967335712
H       -1.2775571548    1.1162256914    0.8595635756
O       -1.2821498643   -0.7532105334   -0.0822769203
H       -1.6176868249   -0.9884359515    0.8094217279
