12   
Generated by ForceBalance from qchem.out: Frame 8 of 8
C        1.7181950961   -0.3723261451    0.1554505705
C        0.5817275712    0.4699968923   -0.4189933162
H        1.9937158058   -0.0253390822    1.1532051249
H        2.6080283353   -0.3200732178   -0.4743525561
H        1.4205370291   -1.4195732084    0.2332596709
H        0.9086257352    1.5110057530   -0.4860220417
C       -0.7040480645    0.3849312750    0.4076721045
H        0.3383899237    0.1482230870   -1.4324317270
H       -1.1296186773    1.3796904920    0.5607340079
H       -0.5102550071   -0.0459724737    1.3944713830
O       -1.6661497039   -0.4550867664   -0.2882090472
H       -2.5280682388    0.0117162583   -0.2471717341
