12   
Generated by ForceBalance from qchem.out: Frame 7 of 7
C        1.4474427117   -0.5599516057    0.0468527236
C        0.6858360590    0.7627953477   -0.0232669828
H        1.1589535473   -1.1335601787    0.9268083993
H        2.5210794174   -0.3714090058    0.0919459152
H        1.2648860436   -1.1800761781   -0.8325013427
H        0.9977085291    1.3924831558    0.8126118743
C       -0.8531624266    0.6108950370    0.0063474770
H        0.9817388499    1.2950292794   -0.9306293969
H       -1.3015296920    1.0951728124   -0.8666148947
H       -1.2703001287    1.0851569203    0.8936506640
O       -1.3246661375   -0.7542792249    0.0953867134
H       -0.9773512742   -1.2139254146   -0.7011718843
