12   
Generated by ForceBalance from qchem.out: Frame 8 of 8
C        1.4004852644   -0.6067371879   -0.0397561555
C        0.6981775092    0.7455371156    0.0434222517
H        1.0883360704   -1.2548329937    0.7764732372
H        2.4820477488   -0.4703239564    0.0143967653
H        1.1707199852   -1.1192188236   -0.9747556609
H        0.9785528917    1.2210344988    0.9862380668
C       -0.8377455106    0.6542496036   -0.0377345756
H        1.0606201943    1.4057119149   -0.7483813453
H       -1.1834536433    1.0095833766   -1.0110183644
H       -1.3032106649    1.2852934703    0.7222014527
O       -1.3105048043   -0.7032599342    0.1733005719
H       -1.7941888387   -0.9608226252   -0.6397076739
