12   
Generated by ForceBalance from qchem.out: Frame 8 of 8
C        1.8087018386   -0.2102275740    0.2432253114
C        0.5774023477    0.5601111566   -0.2281358156
H        1.6047845133   -0.7171568013    1.1880075740
H        2.6586751804    0.4573385746    0.3947280737
H        2.1051323537   -0.9666924295   -0.4864049926
H        0.3055412564    1.3127134336    0.5136159643
C       -0.6507283508   -0.3359176060   -0.4237967501
H        0.8076226232    1.0962096801   -1.1516761200
H       -0.4176000430   -1.3743276103   -0.1694408900
H       -0.9870358258   -0.3210940911   -1.4632412635
O       -1.7185433154    0.1171675869    0.4529901391
H       -2.5402687732    0.1278781993   -0.0833152455
