12   
Generated by ForceBalance from qchem.out: Frame 8 of 8
C        1.6840563312   -0.4220999807    0.1426210140
C        0.5945442106    0.5148336904   -0.3728257406
H        1.9669418086   -0.1638845830    1.1650052335
H        2.5810906250   -0.3681517474   -0.4767194217
H        1.3363133331   -1.4571990056    0.1393330136
H        0.9686596603    1.5416902590   -0.3473590918
C       -0.7028892182    0.4235740180    0.4301683680
H        0.3498439253    0.2929464671   -1.4125878265
H       -1.1124129668    1.4171923001    0.6331496467
H       -0.5301167075   -0.0654989287    1.3924125906
O       -1.6854052483   -0.3138571153   -0.3486097608
H       -2.1115920366   -0.9535529226    0.2619126525
