12   
Generated by ForceBalance from qchem.out: Frame 8 of 8
C        1.7985343353   -0.2179956274   -0.2172402206
C        0.5445707480    0.5702635658    0.1552044619
H        2.1128283751   -0.8657051394    0.6036605087
H        2.6303994227    0.4473237706   -0.4544865312
H        1.6088991500   -0.8475892909   -1.0881594359
H        0.7616956849    1.2310791398    0.9983220363
C       -0.6537716849   -0.3368204739    0.4760476990
H        0.2570410964    1.2090631496   -0.6824411546
H       -0.9631510463   -0.2391075275    1.5208797913
H       -0.3979937704   -1.3832123501    0.3065032649
O       -1.7822125108   -0.1037752817   -0.4025873994
H       -2.1844019699    0.7419217300   -0.1024806971
