12   
Generated by ForceBalance from qchem.out: Frame 8 of 8
C        1.8914217938   -0.1329907374   -0.0093790707
C        0.5182546827    0.5348861818    0.0109035390
H        2.0324294381   -0.7654674602    0.8694977055
H        2.6902901491    0.6098339375   -0.0176787897
H        2.0095239015   -0.7608466879   -0.8950713813
H        0.4100116741    1.1651078309    0.8958298806
C       -0.6121783602   -0.4801484565    0.0080041587
H        0.4046484997    1.1879312352   -0.8579696219
H       -0.5663798801   -1.1015372263    0.9052585815
H       -0.5327208160   -1.1440363319   -0.8574575782
O       -1.9007275260    0.1866512423    0.0275398052
H       -2.2679039849    0.1098112465   -0.8790285075
