12   
Generated by ForceBalance from qchem.out: Frame 8 of 8
C        1.6122039882   -0.4722848224    0.1123224162
C        0.6268249609    0.5951096308   -0.3518818802
H        1.8332814743   -0.3546629675    1.1748307279
H        2.5533804485   -0.4115287128   -0.4366242339
H        1.1917885020   -1.4675033890   -0.0386769458
H        1.0479585818    1.5877460980   -0.1623503509
C       -0.7143978386    0.4857378340    0.3585143564
H        0.4534998930    0.5222340958   -1.4278046058
H       -1.2886064442    1.4098924628    0.2525874352
H       -0.5716493994    0.3030543948    1.4257685673
O       -1.4765501378   -0.6366434385   -0.1629160252
H       -2.1774246712   -0.2524606807   -0.7317613779
