12   
Generated by ForceBalance from qchem.out: Frame 9 of 9
C        1.4225105987   -0.5944393043    0.0074271763
C        0.6929505106    0.7472993530    0.0336333301
H        1.1315648756   -1.2175954638    0.8517248171
H        2.5001282425   -0.4279361864    0.0555401802
H        1.1986652817   -1.1468029338   -0.9038324151
H        0.9654318322    1.2820632408    0.9462417832
C       -0.8398076498    0.6348726978   -0.0455162491
H        1.0497997128    1.3623480282   -0.7954857437
H       -1.2195643093    1.1655665727   -0.9241167278
H       -1.3047527167    1.0853207064    0.8369249308
O       -1.2134288024   -0.7631043328   -0.1275585962
H       -2.1959815987   -0.7719646173   -0.1754023999
