12   
Generated by ForceBalance from qchem.out: Frame 7 of 7
C        1.4656005632   -0.5537773597   -0.0916033650
C        0.6469890155    0.6874857355    0.2461046256
H        1.0152481582   -1.4368678607    0.3576497884
H        2.4885549766   -0.4557263707    0.2752482746
H        1.5072642457   -0.7121304829   -1.1711917352
H        0.6296559819    0.8222839964    1.3315582242
C       -0.7828606576    0.5976483015   -0.2715855597
H        1.1107743820    1.5849797653   -0.1740643426
H       -0.7875124737    0.6939927223   -1.3599847490
H       -1.4022215716    1.4006266393    0.1356538987
O       -1.3671690236   -0.7016527039    0.0081626115
H       -1.9951034973   -0.5725326998    0.7517431645
