12   
Generated by ForceBalance from qchem.out: Frame 7 of 7
C        1.4538790706   -0.5555217462   -0.0932960350
C        0.6405549972    0.6903086564    0.2433577612
H        1.0169769391   -1.4394786288    0.3682926341
H        2.4823904705   -0.4544039795    0.2566371195
H        1.4767904852   -0.7247375770   -1.1714411482
H        0.6336260783    0.8340321107    1.3289955891
C       -0.7966865865    0.6098719728   -0.2580613493
H        1.1068644615    1.5841380352   -0.1807897977
H       -0.8233634861    0.6871310579   -1.3457468157
H       -1.3977666233    1.4273314581    0.1538808422
O       -1.4193209646   -0.6665850316    0.0161404415
H       -1.4032643749   -0.7669961921    0.9956049352
