12   
Generated by ForceBalance from qchem.out: Frame 8 of 8
C        1.8557368461   -0.1578984162   -0.1927220610
C        0.5442128838    0.4990879419    0.2335192772
H        2.1269703810   -0.9756616186    0.4784586144
H        2.6770287222    0.5603246785   -0.1894014849
H        1.7713791437   -0.5686521688   -1.2005717757
H        0.6418280767    0.9668886255    1.2148481567
C       -0.6301768861   -0.4810419063    0.2348983021
H        0.3061008905    1.3031064228   -0.4681376423
H       -0.7615315346   -0.9452725774    1.2122802872
H       -0.4530538418   -1.2823915564   -0.4904579578
O       -1.8923463374    0.1666554227   -0.0525523719
H       -1.8808619603    0.3479819372   -1.0184744782
