12   
Generated by ForceBalance from qchem.out: Frame 9 of 9
C        1.3977219587   -0.6094979514   -0.0011895514
C        0.6998009532    0.7475269509    0.0354451638
H        1.1011159394   -1.2291730376    0.8444280339
H        2.4800154939   -0.4740118973    0.0386618282
H        1.1493314748   -1.1551186286   -0.9103262757
H        0.9932668557    1.2730076640    0.9478849387
C       -0.8404426540    0.6568991680   -0.0366566137
H        1.0597646650    1.3594508557   -0.7944640363
H       -1.2043375675    1.1510813902   -0.9385887865
H       -1.3010766102    1.1603766132    0.8158606885
O       -1.3239665444   -0.7093519381   -0.1256092877
H       -1.6863818531   -0.9365534810    0.7576182600
