12   
Generated by ForceBalance from qchem.out: Frame 8 of 8
C        1.7929298548   -0.3511666190    0.0159374512
C        0.5869288114    0.5327245182   -0.2963641319
H        2.0833216215   -0.2625730319    1.0648631798
H        2.6557688861   -0.0750773318   -0.5926989231
H        1.5659966487   -1.4008833758   -0.1814436411
H        0.8501990060    1.5784148713   -0.1217168302
C       -0.6584632517    0.1626413524    0.5192760433
H        0.3185478566    0.4480687313   -1.3504103449
H       -1.0056324574    1.0097020368    1.1152728993
H       -0.4382186155   -0.6545679835    1.2106952387
O       -1.7501141590   -0.2124535391   -0.3665544834
H       -1.9923450421   -1.1360776565   -0.1422959307
