12   
Generated by ForceBalance from qchem.out: Frame 6 of 6
C       -1.7763807596    0.1048652438    0.3230732028
C       -0.5574772567   -0.4363821086   -0.4214734087
H       -1.5498198177    0.2482896017    1.3810232792
H       -2.6239495053   -0.5782488403    0.2465915106
H       -2.0847915885    1.0681408864   -0.0868920064
H       -0.2995727560   -1.4201382294   -0.0174636358
C        0.6649335596    0.4906631931   -0.3195433097
H       -0.8132208290   -0.6042452920   -1.4701265514
H        0.4173576079    1.3752917177    0.2732889311
H        0.9756706756    0.8324680575   -1.3097167212
O        1.8267247391   -0.1195274051    0.3000751452
H        1.5736120619   -1.0373360927    0.5334083416
