12   
Generated by ForceBalance from qchem.out: Frame 8 of 8
C        1.8584651427   -0.1557543625   -0.1526560745
C        0.5225870115    0.5232004379    0.1433601690
H        2.1086314745   -0.8913827731    0.6147654169
H        2.6702358469    0.5719285011   -0.1937099873
H        1.8178236825   -0.6727123362   -1.1125419411
H        0.5823763847    1.1056835422    1.0666742786
C       -0.6336344333   -0.4702189473    0.2203067223
H        0.2962956604    1.2232985017   -0.6650170013
H       -0.7160804380   -0.8976817368    1.2255300230
H       -0.4759547396   -1.2914210619   -0.4799264688
O       -1.8967505650    0.1075567093   -0.1876436604
H       -1.9439171187    0.9858831831    0.2529616481
