12   
Generated by ForceBalance from qchem.out: Frame 7 of 7
C        1.5336422875   -0.4897640557   -0.1666431410
C        0.6184385006    0.6370626473    0.3076683159
H        1.1448645276   -1.4686107512    0.1162684977
H        2.5322694812   -0.3898463881    0.2611115821
H        1.6268189303   -0.4757826154   -1.2540601380
H        0.5362453672    0.6217895365    1.3993488660
C       -0.7790008823    0.5585973813   -0.2855066111
H        1.0533546978    1.6054916575    0.0453586817
H       -0.7353410566    0.6025542362   -1.3761309847
H       -1.3831367957    1.4007919576    0.0659366366
O       -1.4678793779   -0.6725345103    0.0480664998
H       -0.9661839504   -1.0807161519    0.7867139717
