12   
Generated by ForceBalance from qchem.out: Frame 12 of 12
C        1.5572961361   -0.4906714117    0.1631572960
C        0.6195393620    0.6125319267   -0.3178434485
H        1.7203603568   -0.4153140469    1.2400470436
H        2.5289173457   -0.4268618246   -0.3295491774
H        1.1304557475   -1.4717326422   -0.0480973390
H        1.0483547826    1.5895290655   -0.0755626382
C       -0.7574949877    0.5200488435    0.3114609559
H        0.4953898707    0.5737691431   -1.4015089884
H       -1.3107107360    1.4508542140    0.1492578471
H       -0.6863381934    0.3502593860    1.3914692205
O       -1.4495910596   -0.5797973735   -0.3319193597
H       -2.4004061532   -0.4801335358   -0.1022120578
