12   
Generated by ForceBalance from qchem.out: Frame 12 of 12
C        1.5408200483   -0.5053306920    0.1666112687
C        0.6287966975    0.6249973380   -0.2989181235
H        1.6993524111   -0.4545257104    1.2457658287
H        2.5165732265   -0.4525917967   -0.3190779537
H        1.0937303262   -1.4719618750   -0.0674063202
H        1.0694350669    1.5904606791   -0.0331568430
C       -0.7575116701    0.5403166159    0.3097171064
H        0.5180902708    0.6109863503   -1.3850934832
H       -1.3025349900    1.4802364386    0.1703190199
H       -0.6945412655    0.3394492390    1.3843169554
O       -1.4546894913   -0.5321015749   -0.3728734633
H       -2.2432830415   -0.7447357533    0.1750239648
