12   
Generated by ForceBalance from qchem.out: Frame 8 of 8
C        1.5440290295   -0.5022789767    0.0904188756
C        0.6180521487    0.6327908781   -0.3357822875
H        1.7604732450   -0.4399931245    1.1583863166
H        2.4912296539   -0.4641318043   -0.4496878674
H        1.0778336006   -1.4693081331   -0.0978422707
H        1.0752142509    1.6006964120   -0.1095728288
C       -0.7401821446    0.5669265676    0.3447165224
H        0.4688703681    0.6109129163   -1.4205993965
H       -1.3531988430    1.4266440002    0.0521788457
H       -0.6340895784    0.5787227556    1.4301577277
O       -1.4468992526   -0.6621707222    0.0528423487
H       -1.3457168403   -0.8021222130   -0.9160332188
