12   
Generated by ForceBalance from qchem.out: Frame 8 of 8
C        1.8549715203   -0.1143906696    0.1972633958
C        0.5310814615    0.5097941567   -0.2405655093
H        1.7723665490   -0.5069504240    1.2117678668
H        2.6629881879    0.6186617022    0.1806050647
H        2.1388845849   -0.9386939599   -0.4600953832
H        0.2786366409    1.3038452332    0.4679233391
C       -0.6226883610   -0.4995918312   -0.2499797605
H        0.6354815400    0.9808967650   -1.2206800450
H       -0.3677362261   -1.3785716688    0.3441484634
H       -0.8336424741   -0.8368257595   -1.2699668339
O       -1.8391776628    0.0096377186    0.3515352281
H       -1.8347231971    0.9796740791    0.1972124233
