12   
Generated by ForceBalance from qchem.out: Frame 8 of 8
C        1.8567560805   -0.1509682601    0.1665706615
C        0.5230265232    0.5118358390   -0.1725223785
H        1.8086814787   -0.6206773520    1.1500214049
H        2.6677781781    0.5785841144    0.1780840037
H        2.1125239103   -0.9226614081   -0.5625024560
H        0.2979220950    1.2523839194    0.6001870855
C       -0.6332814543   -0.4839521044   -0.2061867122
H        0.5874614346    1.0475902961   -1.1230958467
H       -0.4719423113   -1.2774139720    0.5254170225
H       -0.7147714739   -0.9495910235   -1.1939811011
O       -1.9023353610    0.1100518764    0.1630010868
H       -1.8518523370    1.0521091992   -0.1120834306
