12   
Generated by ForceBalance from qchem.out: Frame 8 of 8
C        1.4262137311   -0.5973052759   -0.0484839919
C        0.7002146906    0.7446099136    0.0046166201
H        1.2052201747   -1.2040160172    0.8296109992
H        2.5052936129   -0.4380077243   -0.0843529310
H        1.1300698774   -1.1697107494   -0.9263472075
H        1.0412928768    1.2987710150    0.8829514328
C       -0.8397712968    0.6184202579    0.0366054640
H        0.9905184185    1.3431484630   -0.8614952716
H       -1.2729247451    1.0709391174   -0.8554461289
H       -1.2581022852    1.1400751926    0.9008287608
O       -1.3140939601   -0.7515268608    0.0103451807
H       -1.3828399949   -1.0382123341    0.9474631522
