12   
Generated by ForceBalance from qchem.out: Frame 8 of 8
C        1.4412497281   -0.5828880896    0.0990776093
C        0.6885379763    0.7204000948   -0.1489035954
H        1.3055770901   -0.9288977093    1.1252535664
H        2.5096732233   -0.4448253429   -0.0749651332
H        1.0768924898   -1.3655606794   -0.5626468257
H        1.0911553877    1.5269862148    0.4694797179
C       -0.8137042208    0.6040034499    0.1236025829
H        0.8494950259    1.0198750369   -1.1888693881
H       -1.3794075933    1.3460556322   -0.4444272993
H       -1.0061039733    0.7851278739    1.1834542205
O       -1.3156016734   -0.7351487396   -0.1241582680
H       -1.8108245593   -0.6991271467   -0.9713196759
