12   
Generated by ForceBalance from qchem.out: Frame 6 of 6
C        1.5223616900   -0.5292232202   -0.1301420140
C        0.6398189949    0.6467377521    0.2750479572
H        1.0833196913   -1.4665662325    0.2086979299
H        2.5199588078   -0.4366465055    0.3023177008
H        1.6294736795   -0.5775046351   -1.2159286941
H        0.5554810004    0.6951275965    1.3630497336
C       -0.7562333823    0.5519059652   -0.3071066192
H        1.0867890612    1.5894468368   -0.0543072753
H       -0.7121238371    0.5371912002   -1.4020901932
H       -1.3604543676    1.4129160643   -0.0017532621
O       -1.3451744395   -0.6754650580    0.1867079434
H       -2.2486622917   -0.7217600860   -0.1994361935
