12   
Generated by ForceBalance from qchem.out: Frame 12 of 12
C       -1.8130083104    0.0381413365    0.3045457359
C       -0.5508964987   -0.2911562548   -0.4900210428
H       -1.6555613086   -0.1473284350    1.3682361388
H       -2.6574904251   -0.5690193762   -0.0252271560
H       -2.0897776741    1.0874212290    0.1851480742
H       -0.3167175643   -1.3495838331   -0.3368288768
C        0.6556859993    0.5505943469   -0.0530499467
H       -0.7316883122   -0.1753161496   -1.5607744660
H        0.4363602485    1.0326936778    0.9052005432
H        0.8732765959    1.3376475758   -0.7771538752
O        1.8804489511   -0.2077864945    0.1091177566
H        1.6217865810   -1.1534233557    0.1357838500
