12   
Generated by ForceBalance from qchem.out: Frame 8 of 8
C        1.7433892784   -0.3655675613   -0.0627887158
C        0.5628142585    0.5030264100    0.3642467613
H        1.4690127887   -1.4218482413   -0.0459214166
H        2.5997965815   -0.2275558196    0.5994907153
H        2.0605649652   -0.1160230787   -1.0770788399
H        0.2783016263    0.2751238671    1.3931396742
C       -0.6742595887    0.3006614220   -0.5214582947
H        0.8672205493    1.5532623235    0.3455135826
H       -0.4185058125   -0.2649377892   -1.4185687301
H       -1.0927363766    1.2574205302   -0.8451295012
O       -1.6979595534   -0.4836996702    0.1445174447
H       -2.2674342929    0.1618379995    0.6171973475
