12   
Generated by ForceBalance from qchem.out: Frame 12 of 12
C        1.7770211652   -0.3386342979   -0.0731748735
C        0.5590657536    0.4759946668    0.3580485709
H        1.5578443943   -1.4065133085   -0.0244959054
H        2.6365659941   -0.1390571638    0.5689036930
H        2.0639109092   -0.1005906196   -1.0993110284
H        0.3041060637    0.2186042652    1.3886942534
C       -0.6775758523    0.2044366010   -0.5131764926
H        0.8052758827    1.5407000672    0.3491705499
H       -0.4727740012   -0.5762817359   -1.2459681407
H       -0.9792885958    1.1024065101   -1.0619940473
O       -1.7998036553   -0.3109066592    0.2430734443
H       -2.0083811848    0.3804977764    0.9109204353
