12   
Generated by ForceBalance from qchem.out: Frame 12 of 12
C        1.4525964429   -0.5410751569   -0.1270353358
C        0.6555637612    0.7384120160    0.1296432028
H        1.2515794117   -1.3088852377    0.6218702472
H        2.5224056126   -0.3324845950   -0.0813269546
H        1.2296344814   -0.9616318001   -1.1090654091
H        0.8370929784    1.0540189267    1.1609169688
C       -0.8547749230    0.6042044840   -0.1039284437
H        1.0289993115    1.5435857195   -0.5069576005
H       -1.0877561931    0.8186697694   -1.1491961980
H       -1.3945046253    1.3281667478    0.5132987892
O       -1.3984103923   -0.7155362938    0.1409476214
H       -0.7230752430   -1.2160846657    0.6445062326
