12   
Generated by ForceBalance from qchem.out: Frame 8 of 8
C        1.8198044702   -0.2048798906    0.2235585233
C        0.5473885207    0.5456585366   -0.1657987599
H        1.6645694165   -0.7805399215    1.1382339167
H        2.6487340838    0.4833133397    0.3970043951
H        2.1249117670   -0.9014271873   -0.5602827972
H        0.2644968305    1.2260240989    0.6402423190
C       -0.6452092913   -0.3877561280   -0.4164831772
H        0.7294668068    1.1681315413   -1.0439536023
H       -0.4217649972   -1.3994970636   -0.0650677422
H       -0.8777389985   -0.4562615662   -1.4795501569
O       -1.8600039436    0.0944559197    0.2129689471
H       -1.8724970525   -0.2989362951    1.1126882694
