12   
Generated by ForceBalance from qchem.out: Frame 6 of 6
C       -1.8039722070    0.1239322388    0.3057542671
C       -0.5626202932   -0.4439220119   -0.3799653352
H       -1.6052601458    0.3093615205    1.3625551544
H       -2.6477168890   -0.5643342279    0.2335649956
H       -2.1033953199    1.0690576347   -0.1509557782
H       -0.3145489081   -1.4030081406    0.0834519306
C        0.6567661859    0.4858283635   -0.2727764409
H       -0.7837400050   -0.6558426932   -1.4286164523
H        0.4177795391    1.3753502493    0.3119242177
H        0.9744449630    0.8174329596   -1.2665453805
O        1.7890500980   -0.1129768016    0.4059508090
H        1.7362991133   -1.0770383592    0.2279027902
