12   
Generated by ForceBalance from qchem.out: Frame 13 of 13
C        1.5081607119   -0.4939193006   -0.1897220952
C        0.6243855335    0.6706538832    0.2544658693
H        1.1565573358   -1.4493617120    0.2027440717
H        2.5340112026   -0.3570150533    0.1553329783
H        1.5234620094   -0.5720984252   -1.2784247468
H        0.6198286654    0.7423149924    1.3464281095
C       -0.8111250808    0.5589854918   -0.2347773578
H        1.0414193694    1.6107194472   -0.1168462183
H       -0.8333898315    0.5398661536   -1.3281921042
H       -1.3925254434    1.4212324485    0.1020452786
O       -1.4881430988   -0.6343871963    0.2328744678
H       -0.8444180122   -1.1273326044    0.7847258582
