12   
Generated by ForceBalance from qchem.out: Frame 8 of 8
C        1.8698840698   -0.1324822364    0.1614138827
C        0.5354429594    0.5315883218   -0.1729229819
H        1.8318775177   -0.5979305607    1.1481626004
H        2.6832578792    0.5948235534    0.1640178065
H        2.1219484379   -0.9090990725   -0.5642102191
H        0.3041354115    1.2789323684    0.5892717120
C       -0.6239775348   -0.4635494542   -0.2005838015
H        0.5930695603    1.0642925677   -1.1239188795
H       -0.4156713126   -1.3016302781    0.4704048550
H       -0.7690073153   -0.8748452585   -1.2013041733
O       -1.8723513847    0.1736718869    0.1796121033
H       -2.0671444368   -0.1263306353    1.0928859298
