12   
Generated by ForceBalance from qchem.out: Frame 9 of 9
C        1.6583167190   -0.4495818928    0.1033376007
C        0.6170366711    0.5704869358   -0.3481434637
H        1.9045785941   -0.3101071343    1.1578595280
H        2.5814456075   -0.3597174468   -0.4716834294
H        1.2813617689   -1.4661549050   -0.0257940503
H        1.0148562052    1.5782577608   -0.1963525910
C       -0.7035429323    0.4407061894    0.3998542766
H        0.4028194277    0.4685576999   -1.4132190443
H       -1.2221184698    1.4021873247    0.4340352934
H       -0.5419664570    0.1132123298    1.4299349925
O       -1.5771050454   -0.4811228261   -0.3096479759
H       -1.7769004910   -1.2187855825    0.3057270673
