12   
Generated by ForceBalance from qchem.out: Frame 7 of 7
C        1.4405391661   -0.5733658703    0.0810328859
C        0.6698247697    0.7221223097   -0.1579888421
H        1.3676578507   -0.8928577260    1.1221097019
H        2.4962046167   -0.4335765606   -0.1576859319
H        1.0435396404   -1.3724343365   -0.5408226860
H        1.1036944406    1.5433493694    0.4183015748
C       -0.8144234825    0.6155629299    0.1883861616
H        0.7721502854    0.9931199142   -1.2119941883
H       -1.3998236588    1.3145035908   -0.4148648796
H       -0.9766117688    0.8686230463    1.2416441100
O       -1.2595966851   -0.7484727966   -0.0259489102
H       -2.2086692719   -0.6930195155   -0.2738981923
