12   
Generated by ForceBalance from qchem.out: Frame 8 of 8
C        1.8867648318   -0.1436094453    0.1278727259
C        0.5474605147    0.5337062252   -0.1541184136
H        1.8665810340   -0.6404302584    1.0993859764
H        2.7006985443    0.5828925389    0.1375446736
H        2.1224974851   -0.8963163432   -0.6279423664
H        0.3315682100    1.2517050467    0.6397378985
C       -0.6124529214   -0.4546576106   -0.1782974932
H        0.5839627895    1.0983858846   -1.0884208512
H       -0.4218047838   -1.2667667089    0.5289155200
H       -0.7367245200   -0.9029948086   -1.1670711138
O       -1.8329396681    0.2034644716    0.2551229270
H       -2.4717289353    0.1404694176   -0.4868556130
