12   
Generated by ForceBalance from qchem.out: Frame 7 of 7
C        1.8923209776   -0.1417483507   -0.0743465511
C        0.5250956071    0.5215097229    0.0726034700
H        2.0796624753   -0.8489887763    0.7367797568
H        2.6915131399    0.6007524767   -0.0587050471
H        1.9598003007   -0.6879989843   -1.0170994762
H        0.4780834844    1.1169979671    0.9864320697
C       -0.6053939975   -0.4893834641    0.0739692055
H        0.3517599900    1.2045111575   -0.7615830682
H       -0.6402583767   -1.0372320867    1.0219329887
H       -0.4574661231   -1.2184810768   -0.7307727098
O       -1.8344280191    0.2434766182   -0.1432311947
H       -2.5569381145   -0.4240825709   -0.1397935480
