12   
Generated by ForceBalance from qchem.out: Frame 8 of 8
C        1.8795338337   -0.1542575779    0.1097598305
C        0.5270637681    0.5194090135   -0.1102009508
H        1.9011276425   -0.6766909335    1.0680727234
H        2.6873479784    0.5790321007    0.1090844328
H        2.0924909492   -0.8841458514   -0.6745316500
H        0.3240690734    1.2178134261    0.7040905877
C       -0.6123427198   -0.4817520346   -0.1429246183
H        0.5271552342    1.0997929847   -1.0349685598
H       -0.5013433069   -1.1930090256    0.6827827375
H       -0.6127841838   -1.0513240958   -1.0787537978
O       -1.8477245578    0.2590622316    0.0053747729
H       -2.5410033684   -0.4022456601    0.2261440983
