12   
Generated by ForceBalance from qchem.out: Frame 12 of 12
C        1.7984758672   -0.0769027795    0.3048486296
C        0.5505730227    0.4387316777   -0.4087599870
H        1.6056254928   -0.2199376753    1.3696876749
H        2.6313289563    0.6206579802    0.2017412794
H        2.1126639692   -1.0364976761   -0.1093333745
H        0.2829751971    1.4220067897   -0.0104895564
C       -0.6531174745   -0.5073809879   -0.2670402911
H        0.7754580643    0.6019088481   -1.4652661568
H       -0.3647501435   -1.3912560112    0.3106446914
H       -1.0035337998   -0.8494177368   -1.2422845875
O       -1.8047812109    0.0912072585    0.3807883709
H       -1.4874864490    0.9129756293    0.8119946266
