12   
Generated by ForceBalance from qchem.out: Frame 8 of 8
C        1.4249348050   -0.5844306696   -0.0668252231
C        0.6717468963    0.7189003152    0.1795600551
H        1.0151132206   -1.3863307078    0.5436938643
H        2.4821978222   -0.4660319456    0.1761413879
H        1.3473351973   -0.8938466563   -1.1104283520
H        0.7689181777    0.9808958310    1.2376724631
C       -0.8112064824    0.6315627891   -0.1939672756
H        1.1223928714    1.5414417295   -0.3820351133
H       -0.9313829748    0.8400546596   -1.2584909373
H       -1.4046160470    1.3670262507    0.3554425342
O       -1.3589947260   -0.7006124560   -0.0348431846
H       -1.7003714319   -0.7531440252    0.8856676592
