12   
Generated by ForceBalance from qchem.out: Frame 8 of 8
C        1.8678424590   -0.1011513433    0.1499803270
C        0.5171284763    0.5018371583   -0.2302347829
H        1.8485859427   -0.4672609095    1.1776809343
H        2.6663581861    0.6376178466    0.0677888533
H        2.1226804870   -0.9408770729   -0.4997824558
H        0.3052809301    1.3241291264    0.4614296293
C       -0.6211754287   -0.5136519955   -0.1323288328
H        0.5503448758    0.9421980407   -1.2289639173
H       -0.3753514025   -1.2582782888    0.6334406416
H       -0.7697615253   -1.0419972675   -1.0747246339
O       -1.8997498730    0.0794872578    0.1975006480
H       -1.6988419829    0.8710406418    0.7427203490
