12   
Generated by ForceBalance from qchem.out: Frame 8 of 8
C        1.6927290909   -0.4094460923   -0.1423788207
C        0.5945960873    0.5183155780    0.3742098257
H        1.3645160054   -1.4513590449   -0.1320486463
H        2.5939797061   -0.3400852285    0.4691702514
H        1.9640422737   -0.1545716476   -1.1686257749
H        0.3545756774    0.3001275347    1.4160525677
C       -0.7076980406    0.4238676801   -0.4278275717
H        0.9631316942    1.5471004157    0.3457475523
H       -0.5366181728   -0.0135095540   -1.4156111831
H       -1.1375207797    1.4150016523   -0.5769631700
O       -1.7363550063   -0.3094514231    0.2869788223
H       -1.6326171775   -1.2524237442    0.0309169962
