12   
Generated by ForceBalance from qchem.out: Frame 8 of 8
C        1.8058489312   -0.1959013686   -0.2345548956
C        0.5497464942    0.5448604090    0.2186528203
H        2.1161618734   -0.9352510720    0.5067488532
H        2.6387842076    0.4925410313   -0.3870532826
H        1.6232397003   -0.7195721653   -1.1744711743
H        0.7604548257    1.1003300427    1.1359995694
C       -0.6525007324   -0.3895920423    0.4177197176
H        0.2633015945    1.2786080222   -0.5366222507
H       -0.9790376508   -0.4099778450    1.4600129964
H       -0.3866235757   -1.4118694044    0.1404871400
O       -1.7587373324   -0.0243568662   -0.4510538028
H       -2.4270912846    0.4159571403    0.1167620832
