12   
Generated by ForceBalance from qchem.out: Frame 9 of 9
C        1.4253855477   -0.6060095827    0.0241719302
C        0.7058635141    0.7399273029   -0.0006099419
H        1.1442812494   -1.1869108303    0.9014562137
H        2.5055453103   -0.4499795629    0.0424989694
H        1.1792504042   -1.1999957666   -0.8548736733
H        1.0047932793    1.3229187719    0.8732422936
C       -0.8330382996    0.6249768799   -0.0270238757
H        1.0434187438    1.3067464700   -0.8719641442
H       -1.2422324528    1.1419495722   -0.8972479157
H       -1.2640429074    1.0941639773    0.8599161051
O       -1.2754739339   -0.7591897374   -0.0226164592
H       -1.7940900474   -0.8917639481   -0.8444491104
