12   
Generated by ForceBalance from qchem.out: Frame 12 of 12
C       -1.7671972384    0.2918248712    0.2182264693
C       -0.5645574936   -0.3103315779   -0.5059486494
H       -2.0517599975   -0.3214883360    1.0750259456
H       -2.6325276943    0.3657801218   -0.4425187834
H       -1.5324640601    1.2924778814    0.5849206067
H       -0.8263913025   -1.2954337938   -0.8986719258
C        0.6813273747   -0.4129214217    0.3889119528
H       -0.3306272332    0.3104418202   -1.3760311032
H        0.9831427800   -1.4577561035    0.5061828616
H        0.4717893966   -0.0154514001    1.3841805302
O        1.8264912525    0.3310766221   -0.1006880424
H        1.6363505086    0.5544992682   -1.0364095115
