12   
Generated by ForceBalance from qchem.out: Frame 8 of 8
C        1.8923078423   -0.1261131164   -0.0481568620
C        0.5118293330    0.5115763044    0.0906538655
H        2.0764086570   -0.8525239810    0.7466090845
H        2.6799686561    0.6270768376    0.0012065126
H        1.9838519691   -0.6459525404   -1.0036848216
H        0.4363163199    1.0747774842    1.0235860461
C       -0.6054067818   -0.5159758905    0.0274596576
H        0.3472419133    1.2222532634   -0.7219678067
H       -0.6322601566   -1.1220899961    0.9368021158
H       -0.4439472517   -1.1933322985   -0.8159030683
O       -1.8747028152    0.1542307283   -0.1918964857
H       -2.4483992239   -0.0643575362    0.5732002850
