12   
Generated by ForceBalance from qchem.out: Frame 9 of 9
C        1.8411511045   -0.0961021229   -0.2242639429
C        0.5328738953    0.4844490481    0.3087154687
H        2.1227918537   -0.9969964402    0.3243199331
H        2.6589477512    0.6201719668   -0.1310949967
H        1.7410117426   -0.3635278106   -1.2773817949
H        0.6577612092    0.8298159796    1.3371641043
C       -0.6327630489   -0.5092347578    0.2121331509
H        0.2882414665    1.3738155116   -0.2808744656
H       -0.8737335204   -0.9340110062    1.1881274471
H       -0.3536989272   -1.3355242242   -0.4497841967
O       -1.8609777298    0.0649831834   -0.3012674299
H       -1.6187240197    0.9238020351   -0.7082325674
