12   
Generated by ForceBalance from qchem.out: Frame 8 of 8
C        1.6688794058   -0.4452458354    0.0655899743
C        0.6004922309    0.5582808672   -0.3624041505
H        1.9412513832   -0.2964924377    1.1123154794
H        2.5746333092   -0.3450867086   -0.5347217701
H        1.3103558793   -1.4709254486   -0.0469093941
H        0.9936168970    1.5702351682   -0.2275184302
C       -0.6982822212    0.4247593197    0.4268260109
H        0.3568977499    0.4486214815   -1.4203667323
H       -1.2339689023    1.3750804395    0.4352229444
H       -0.5072331335    0.1402228810    1.4655889202
O       -1.6181356823   -0.5029173439   -0.2055079958
H       -1.4205497273   -1.3896718327    0.1688369646
