12   
Generated by ForceBalance from qchem.out: Frame 6 of 6
C        1.4899763045   -0.5180426131    0.1336995054
C        0.6331448231    0.6958535735   -0.2265096525
H        1.4072865161   -0.7589014725    1.1954148382
H        2.5397603219   -0.3216772173   -0.0885498260
H        1.2097280909   -1.4071479265   -0.4335324972
H        1.0577398152    1.5978053705    0.2211765080
C       -0.8204102888    0.5853884950    0.2253469727
H        0.6645019300    0.8421458742   -1.3102399391
H       -1.4250679645    1.3582223702   -0.2558940717
H       -0.8783057709    0.7375235222    1.3071910060
O       -1.4376724268   -0.6961164416   -0.0466072494
H       -0.7619392335   -1.2534633235   -0.4853568074
