12   
Generated by ForceBalance from qchem.out: Frame 12 of 12
C        1.5092930282   -0.5169165939   -0.1740274607
C        0.6342914543    0.6491474483    0.2736806055
H        1.0698377860   -1.4637890542    0.1388078301
H        2.5127962520   -0.4434896722    0.2479185697
H        1.6000995586   -0.5336116490   -1.2616849876
H        0.6010885589    0.6965585595    1.3671094084
C       -0.7878966718    0.5446253110   -0.2553874907
H        1.0635505915    1.5979516347   -0.0624637980
H       -0.7918462484    0.4750962683   -1.3437107886
H       -1.3721041592    1.4258455495    0.0311111362
O       -1.4528618912   -0.6607295625    0.1911199619
H       -1.4599808515   -0.6088086395    1.1740662034
