12   
Generated by ForceBalance from qchem.out: Frame 8 of 8
C       -1.7851028611    0.2982485961    0.1690679082
C       -0.5803626983   -0.3514673818   -0.5095005356
H       -2.0774856950   -0.2578334976    1.0619044978
H       -2.6471971674    0.3330244312   -0.4991906799
H       -1.5578807069    1.3219136771    0.4746958190
H       -0.8459536714   -1.3626403369   -0.8258938724
C        0.6686832617   -0.3945465508    0.3854612675
H       -0.3169757934    0.1936361090   -1.4181556773
H        1.0343898073   -1.4142413803    0.5030932211
H        0.4460525001   -0.0068440261    1.3847600844
O        1.7916004536    0.3214121002   -0.1859723773
H        1.5880988431    1.2761486681   -0.0669445840
