12   
Generated by ForceBalance from qchem.out: Frame 8 of 8
C        1.6020537679   -0.4745135651    0.1171087072
C        0.6252654038    0.5973801595   -0.3563656966
H        1.8127783077   -0.3593625600    1.1820636397
H        2.5489260251   -0.4146945595   -0.4221141383
H        1.1818505225   -1.4687655110   -0.0401727078
H        1.0519842537    1.5875167569   -0.1677315869
C       -0.7186532085    0.5050217714    0.3453820062
H        0.4509975515    0.5197365131   -1.4309947387
H       -1.2871752309    1.4265782084    0.1939059631
H       -0.5905673518    0.3623516515    1.4228163488
O       -1.4517325440   -0.6238937291   -0.2036461557
H       -2.3686359638   -0.3127786337   -0.3614249986
