12   
Generated by ForceBalance from qchem.out: Frame 7 of 7
C        1.5537002227   -0.5045342796    0.1148719055
C        0.6105809746    0.6195539171   -0.3066596804
H        1.7319535143   -0.4793443550    1.1920250491
H        2.5188191146   -0.4217070440   -0.3871698937
H        1.1380085223   -1.4822177099   -0.1373463752
H        1.0645063656    1.5838554023   -0.0589688111
C       -0.7518667428    0.5366615115    0.3662015991
H        0.4538624056    0.6055692205   -1.3870454040
H       -1.3194456241    1.4511383258    0.1912541462
H       -0.6465294195    0.4062919472    1.4484358267
O       -1.5767049011   -0.5112692452   -0.1983687202
H       -1.2159097223   -1.3577967123    0.1477175130
