12   
Generated by ForceBalance from qchem.out: Frame 9 of 9
C        1.4071037571   -0.5989147876    0.0471452486
C        0.7037696266    0.7548377754   -0.0082295739
H        1.1814608546   -1.1320970700    0.9726443041
H        2.4888101409   -0.4639171222   -0.0013531796
H        1.0955471425   -1.2281643406   -0.7842412119
H        1.0384417093    1.3840033682    0.8202422578
C       -0.8363760382    0.6557463984    0.0149476309
H        1.0147313362    1.2645426870   -0.9229290249
H       -1.2738072207    1.2885626197   -0.7570259608
H       -1.2288215092    0.9969626940    0.9765061275
O       -1.3352083978   -0.6774399598   -0.2606230174
H       -1.4022808487   -1.1286762679    0.6088722653
