12   
Generated by ForceBalance from qchem.out: Frame 9 of 9
C        1.7044453616   -0.3704582420   -0.2061336045
C        0.5795315737    0.4298354106    0.4469789643
H        1.3891071545   -1.3981897517   -0.3957739773
H        2.5928007601   -0.3991523704    0.4270847059
H        1.9865667940    0.0755083835   -1.1611103449
H        0.3655665856    0.0353335635    1.4448411204
C       -0.7112097845    0.4435365181   -0.3828739293
H        0.9193406236    1.4570380852    0.6021708332
H       -0.5198242979    0.1053965599   -1.4031863706
H       -1.1142656926    1.4590904159   -0.4382021279
O       -1.7584562619   -0.4127650568    0.1421168767
H       -1.4994203362   -0.6395585958    1.0603969794
