12   
Generated by ForceBalance from qchem.out: Frame 9 of 9
C        1.6770398503   -0.4133225895    0.1255503344
C        0.5827738630    0.5137860442   -0.3959904154
H        1.9625430792   -0.1374394127    1.1423623623
H        2.5705370564   -0.3650751697   -0.4992843780
H        1.3296560031   -1.4478638037    0.1407567349
H        0.9558543251    1.5424092887   -0.3861187110
C       -0.6977770602    0.4379757435    0.4311887762
H        0.3278266312    0.2761704698   -1.4299343350
H       -1.2126068674    1.4018056391    0.4293532603
H       -0.4781152051    0.1823924185    1.4709637933
O       -1.5774487864   -0.5877686358   -0.1079241016
H       -2.4092030844   -0.1358771285   -0.3633108808
