12   
Generated by ForceBalance from qchem.out: Frame 8 of 8
C        1.8540271438   -0.1419620075    0.1904471580
C        0.5294467322    0.4857744941   -0.2389868449
H        1.7898507735   -0.5015042654    1.2184118694
H        2.6690042771    0.5809597496    0.1331694472
H        2.1146765790   -0.9897392767   -0.4464035348
H        0.3117236486    1.3132478583    0.4442142949
C       -0.6325285257   -0.5030029670   -0.1711058985
H        0.6063847839    0.9146724276   -1.2407040828
H       -0.4517235259   -1.2270436947    0.6283961473
H       -0.7293470289   -1.0570152652   -1.1081798679
O       -1.9104996189    0.1215150511    0.1118957370
H       -1.7381228316    1.0830337072    0.2009882520
