12   
Generated by ForceBalance from qchem.out: Frame 12 of 12
C        1.4362769081   -0.5567444608   -0.0451649190
C        0.6680144820    0.7616000815    0.0357781523
H        1.1783968255   -1.2156797898    0.7846983651
H        2.5092008160   -0.3674684658    0.0057790794
H        1.2483609893   -1.0854199849   -0.9831876187
H        0.9394757690    1.2459976041    0.9764781051
C       -0.8692605744    0.6262762312   -0.0420225345
H        1.0028225335    1.4288051048   -0.7610621544
H       -1.2131965946    0.9770408578   -1.0206286655
H       -1.3529300204    1.2415904264    0.7162985845
O       -1.3906655005   -0.7087118539    0.1595088669
H       -0.7055881146   -1.3315948799   -0.1626457437
