12   
Generated by ForceBalance from qchem.out: Frame 7 of 7
C        1.7187543290   -0.3643140188   -0.1573455413
C        0.5878510380    0.4523207070    0.4659275037
H        1.4195269633   -1.4035392788   -0.3134931691
H        2.6052434950   -0.3672082025    0.4791096315
H        2.0028391709    0.0483732753   -1.1269437928
H        0.3380744724    0.0837316957    1.4629026310
C       -0.6953763288    0.4479277226   -0.3730974034
H        0.9322824130    1.4814961849    0.5965243098
H       -0.4832180126    0.1583444883   -1.4079083141
H       -1.1554767808    1.4355040645   -0.3916895377
O       -1.7281343060   -0.4001569353    0.1855414258
H       -1.3439576236   -1.3058277020    0.2119905649
