12   
Generated by ForceBalance from qchem.out: Frame 8 of 8
C        1.8808327147   -0.1323312034    0.1287253162
C        0.5231256808    0.4941166506   -0.1820472283
H        1.8981113596   -0.5333583230    1.1436149573
H        2.6824828327    0.6023614477    0.0423295933
H        2.1031486650   -0.9511638367   -0.5585269266
H        0.3338975587    1.2964347935    0.5389264443
C       -0.6134300041   -0.5147057962   -0.0822523319
H        0.5193732988    0.9556883066   -1.1716895558
H       -0.4707612843   -1.1407821239    0.8064769811
H       -0.6412029876   -1.1705461756   -0.9527041649
O       -1.9165339899    0.1094979479   -0.0293713763
H       -1.8289727083    0.8502344496    0.6111245725
