12   
Generated by ForceBalance from qchem.out: Frame 7 of 7
C        1.8618270659   -0.1146124138    0.1842066991
C        0.5373179731    0.4917808036   -0.2748279464
H        1.8028739228   -0.4209438814    1.2299761704
H        2.6788256650    0.6018015407    0.0868136017
H        2.1192720065   -0.9954316481   -0.4076533170
H        0.3146270943    1.3561050953    0.3589527772
C       -0.6252102305   -0.4953377308   -0.1625774017
H        0.6132922777    0.8734011111   -1.2949696592
H       -0.4190911580   -1.2115340742    0.6415823781
H       -0.7647088136   -1.0611081959   -1.0836143108
O       -1.8970547805    0.1452375049    0.0895984058
H       -1.7233473162    0.8108652176    0.7915421042
