12   
Generated by ForceBalance from qchem.out: Frame 9 of 9
C        1.7487198507   -0.3523499608    0.1225462302
C        0.5675940561    0.4454139356   -0.4245848156
H        2.0560277047    0.0283417741    1.0984921153
H        2.6100512282   -0.2950174178   -0.5452668372
H        1.4818538056   -1.4041456624    0.2403304675
H        0.8677926656    1.4899721710   -0.5440018816
C       -0.6751719561    0.3603943181    0.4683040167
H        0.2850364552    0.0814141993   -1.4133863451
H       -1.1085618953    1.3503138476    0.6279433749
H       -0.4222177965   -0.0484177107    1.4498851779
O       -1.6671462690   -0.5198640407   -0.1299784686
H       -2.4716919194    0.0216008714   -0.2748936871
