12   
Generated by ForceBalance from qchem.out: Frame 8 of 8
C        1.4188555573   -0.5931566323   -0.0039481597
C        0.6920191456    0.7501548348    0.0024864072
H        1.1421126590   -1.1948233926    0.8602857088
H        2.4974893713   -0.4279089373    0.0200098314
H        1.1774983499   -1.1673935819   -0.8972300562
H        0.9884952713    1.3102214142    0.8922045031
C       -0.8427068783    0.6380835106   -0.0352231150
H        1.0281095058    1.3407429465   -0.8526901434
H       -1.2474048540    1.1443185034   -0.9171984776
H       -1.2800844996    1.1151884747    0.8465916738
O       -1.2249823602   -0.7602201848   -0.0684578820
H       -2.1825993532   -0.7804414331    0.1539277537
