12   
Generated by ForceBalance from qchem.out: Frame 8 of 8
C        1.7220655523   -0.3783750158    0.1293139146
C        0.5793447397    0.4834625267   -0.4016119480
H        2.0035312466   -0.0698436780    1.1378933638
H        2.6073845254   -0.3007494167   -0.5041581713
H        1.4249191975   -1.4278840292    0.1685582239
H        0.9022254618    1.5279888417   -0.4277016927
C       -0.7013701291    0.3516471884    0.4340001366
H        0.3388215972    0.2017862983   -1.4284354378
H       -1.1170207493    1.3315969180    0.6834692382
H       -0.4979723889   -0.1658923565    1.3725768893
O       -1.7073230123   -0.4527274060   -0.2351782656
H       -2.2419422037    0.1739007762   -0.7699350236
