12   
Generated by ForceBalance from qchem.out: Frame 8 of 8
C        1.6930071084   -0.3860606172    0.1710320665
C        0.5848205368    0.4952634162   -0.4028883293
H        1.9709441263   -0.0530191836    1.1725197176
H        2.5879584407   -0.3572484534   -0.4528138006
H        1.3735941145   -1.4284023498    0.2444111338
H        0.9445160328    1.5266401886   -0.4437748047
C       -0.7141172739    0.4400773022    0.4097178648
H        0.3491097002    0.2121682534   -1.4308274985
H       -1.1622679257    1.4289685182    0.5024329333
H       -0.5251887503    0.0627145847    1.4204887946
O       -1.7465650681   -0.3442495024   -0.2357443646
H       -1.3734130042   -1.2500198009   -0.3300528418
