12   
Generated by ForceBalance from qchem.out: Frame 8 of 8
C        1.8798458754   -0.1325582041    0.1247048757
C        0.5198862481    0.4960973449   -0.1708735684
H        1.9015503996   -0.5477283515    1.1336612258
H        2.6795677293    0.6049548876    0.0451509065
H        2.0999920681   -0.9409089258   -0.5754229091
H        0.3336924424    1.2856850878    0.5651411039
C       -0.6142943058   -0.5154559985   -0.0811463786
H        0.5129015754    0.9730337063   -1.1535393907
H       -0.4706847852   -1.1440937709    0.8051513680
H       -0.6342401426   -1.1675061303   -0.9554333890
O       -1.9213387017    0.1023107008   -0.0131601904
H       -1.7882546965    0.9663929827    0.4347958477
