12   
Generated by ForceBalance from qchem.out: Frame 9 of 9
C        1.4284021208   -0.5926480794   -0.0818329985
C        0.6980017155    0.7378109729    0.0779599392
H        1.1351411580   -1.2951400047    0.6962862062
H        2.5071101364   -0.4397147234   -0.0176468600
H        1.2029593331   -1.0560529504   -1.0425327546
H        0.9594650555    1.1592908867    1.0528520826
C       -0.8330745955    0.6153635750   -0.0407535910
H        1.0520950949    1.4546625290   -0.6664065099
H       -1.1509756288    0.9286386743   -1.0359022934
H       -1.3405060129    1.2593509318    0.6816835275
O       -1.3159923295   -0.7472811690    0.0641422591
H       -1.4892554952   -0.9088346481    1.0181068584
