12   
Generated by ForceBalance from qchem.out: Frame 8 of 8
C        1.8864032354   -0.1190130653    0.1090938265
C        0.5201139670    0.5208184269   -0.1294021253
H        1.8982350863   -0.6454826416    1.0645866406
H        2.6764234038    0.6331442149    0.1268263849
H        2.1297008367   -0.8395979876   -0.6746353653
H        0.3025387670    1.2049127259    0.6949234065
C       -0.6070049069   -0.5072734391   -0.1760070522
H        0.5274275350    1.1150369788   -1.0471589546
H       -0.3987769715   -1.3310552434    0.5077731039
H       -0.7134632562   -0.9255886620   -1.1828076144
O       -1.8713183252    0.0263795216    0.2850521264
H       -1.9614549594    0.9075830438   -0.1429303124
