12   
Generated by ForceBalance from qchem.out: Frame 12 of 12
C        1.4546914884   -0.5574237458   -0.0230398830
C        0.6617945400    0.7357415506    0.1512533621
H        1.0877539029   -1.3267451666    0.6554069165
H        2.5100118070   -0.3899777008    0.1959147909
H        1.3920652805   -0.9385377127   -1.0459936970
H        0.7702636076    1.0583053388    1.1895413571
C       -0.8319868621    0.5931278671   -0.1785725058
H        1.0848886304    1.5299723068   -0.4686235308
H       -1.0043068051    0.8505942612   -1.2296067639
H       -1.4361390829    1.2646020028    0.4300569653
O       -1.3678798505   -0.7260650046    0.0730342903
H       -0.8505356455   -1.3357109247   -0.4978887834
