12   
Generated by ForceBalance from qchem.out: Frame 8 of 8
C        1.7985125184   -0.2176433518    0.2174984696
C        0.5444714561    0.5702116856   -0.1555375947
H        1.6086968710   -0.8472312542    1.0883834270
H        2.6300656707    0.4479507435    0.4550674130
H        2.1133646491   -0.8653121240   -0.6032197203
H        0.2568082045    1.2095321858    0.6816645200
C       -0.6537368182   -0.3372177093   -0.4758915484
H        0.7615742029    1.2305016584   -0.9990738038
H       -0.3978462168   -1.3834722331   -0.3056699598
H       -0.9630603923   -0.2402015406   -1.5208052564
O       -1.7822627333   -0.1037408113    0.4025233976
H       -2.1845308626    0.7417192256    0.1018539291
