12   
Generated by ForceBalance from qchem.out: Frame 8 of 8
C        1.8605858823   -0.1598564519    0.1400879773
C        0.5243661014    0.5328665369   -0.1204734076
H        1.8243408163   -0.7163011045    1.0779320899
H        2.6738217977    0.5642524047    0.2074764311
H        2.1064014049   -0.8634995083   -0.6582403302
H        0.2991321885    1.2001524579    0.7148099294
C       -0.6334908468   -0.4558583126   -0.2294925836
H        0.5810457621    1.1520996015   -1.0198530077
H       -0.4738527709   -1.2967527741    0.4463220816
H       -0.7206728345   -0.8556619833   -1.2453958682
O       -1.8916485789    0.1085698172    0.2092814792
H       -2.0564975925    0.8819666762   -0.3766087165
