12   
Generated by ForceBalance from qchem.out: Frame 8 of 8
C        1.7668653478   -0.2532905212    0.2593433978
C        0.5681844141    0.5696908309   -0.2070215525
H        1.5198398464   -0.8156957434    1.1618814468
H        2.6219885423    0.3861542950    0.4852514252
H        2.0769977482   -0.9664746713   -0.5072289698
H        0.2803567495    1.2851020443    0.5648383513
C       -0.6645769156   -0.2871418740   -0.5062856340
H        0.8456684578    1.1510039272   -1.0891316417
H       -0.4455884738   -1.3442255639   -0.3287911378
H       -0.9835560779   -0.1863764497   -1.5482979148
O       -1.7408448310    0.1472111838    0.3674008343
H       -2.3031369969   -0.6417184293    0.5315828360
