12   
Generated by ForceBalance from qchem.out: Frame 12 of 12
C        1.8104720706   -0.3187430839    0.0464115932
C        0.5623880294    0.5533453940    0.1680431232
H        1.6341020448   -1.3051431424    0.4795752748
H        2.6579835011    0.1302866112    0.5670419934
H        2.0984094827   -0.4580848361   -0.9979693405
H        0.2879801585    0.6549141794    1.2193290024
C       -0.6491366852   -0.0428440651   -0.5526728709
H        0.7680139711    1.5595898939   -0.2025351473
H       -0.4592486067   -1.0929397064   -0.7914932952
H       -0.8550349085    0.4753585565   -1.4934195835
O       -1.8178588903    0.0576085558    0.3060544244
H       -2.2741259663   -0.8098205300    0.2611634514
