12   
Generated by ForceBalance from qchem.out: Frame 7 of 7
C        1.7552959667   -0.3736306953   -0.0899030459
C        0.5857664394    0.4878880142    0.3806670205
H        1.4747095279   -1.4283419437   -0.0977044275
H        2.6236106842   -0.2581668766    0.5610390472
H        2.0554626916   -0.0970584184   -1.1021347221
H        0.3368580287    0.2433096296    1.4160916427
C       -0.6738633827    0.3038307346   -0.4776325163
H        0.8881968454    1.5385364241    0.3726767484
H       -0.4506842299   -0.2439073135   -1.3931571847
H       -1.0947517060    1.2731688395   -0.7643866308
O       -1.6929912305   -0.4872532806    0.1801960991
H       -1.9166101854    0.0046595633    1.0017077353
