12   
Generated by ForceBalance from qchem.out: Frame 8 of 8
C        1.4829248070   -0.5263599234    0.1349199853
C        0.6413871551    0.6947492806   -0.2255164843
H        1.4806110319   -0.7015373422    1.2136299495
H        2.5196640364   -0.3963363707   -0.1785409491
H        1.1002166029   -1.4203089837   -0.3591475082
H        1.0844050303    1.5962881193    0.2081925504
C       -0.7973827639    0.5835008459    0.2574381266
H        0.6330562829    0.8292740542   -1.3093700032
H       -1.3799622533    1.4473344287   -0.0636047175
H       -0.8316497668    0.5407608755    1.3515550622
O       -1.4807049354   -0.5594557744   -0.3095349891
H       -1.1293645793   -1.3451300416    0.1647402347
