12   
Generated by ForceBalance from qchem.out: Frame 9 of 9
C        1.7692083113   -0.1039204431    0.3499640716
C        0.5762582138    0.4350677226   -0.4357491782
H        1.5120951825   -0.2301701164    1.4032170828
H        2.6222498267    0.5741835835    0.2893183548
H        2.0848950774   -1.0740821353   -0.0385769448
H        0.2806841820    1.4165614326   -0.0626957892
C       -0.6538112270   -0.4700373814   -0.3559946454
H        0.8671931659    0.5667464355   -1.4810215230
H       -0.3909876536   -1.4658915882    0.0154276759
H       -1.1044704759   -0.5930019867   -1.3447244134
O       -1.6149246317    0.1471770232    0.5416079137
H       -2.5042967715   -0.1280136364    0.2283211279
