12   
Generated by ForceBalance from qchem.out: Frame 8 of 8
C        1.6308032619   -0.4426780074    0.1681453980
C        0.5994694195    0.5440260655   -0.3723313368
H        1.8662884410   -0.2224167703    1.2110620308
H        2.5599388250   -0.3976352123   -0.4026169815
H        1.2493898169   -1.4637693282    0.1148629648
H        0.9973455603    1.5590626595   -0.2857148351
C       -0.7319884135    0.4703515656    0.3612376857
H        0.4018700544    0.3676153205   -1.4307299098
H       -1.2320210951    1.4439548347    0.3419355931
H       -0.5927058464    0.1835007955    1.4091213941
O       -1.5530985421   -0.5059264019   -0.3296511520
H       -2.4725001238   -0.3695838443   -0.0085851565
