12   
Generated by ForceBalance from qchem.out: Frame 8 of 8
C        1.8881166955   -0.1472556450    0.1205477812
C        0.5480281674    0.5415525754   -0.1287539542
H        1.8724234622   -0.6792676755    1.0732966409
H        2.7033634342    0.5771229616    0.1521005069
H        2.1179423407   -0.8721613625   -0.6636814577
H        0.3355366687    1.2275029095    0.6937623435
C       -0.6122689242   -0.4468491466   -0.1864078303
H        0.5835505426    1.1425476068   -1.0406349241
H       -0.4221984444   -1.2736012958    0.5020280194
H       -0.7328071340   -0.8732930813   -1.1855315585
O       -1.8448787548    0.1672996693    0.2729303785
H       -2.3880815000    0.3439746084   -0.5252983933
