12   
Generated by ForceBalance from qchem.out: Frame 8 of 8
C        1.8390056128   -0.1291390618   -0.2380511118
C        0.5493209711    0.5179069816    0.2638469679
H        2.1226321530   -0.9812286633    0.3834012308
H        2.6686204761    0.5797043579   -0.2276311542
H        1.7180959027   -0.4894187060   -1.2616055753
H        0.7009899758    0.9409172286    1.2587719292
C       -0.6407094118   -0.4516419403    0.2767094084
H        0.2825830951    1.3526922185   -0.3877550188
H       -0.9014597084   -0.7442978371    1.2941638838
H       -0.3981670855   -1.3653587387   -0.2740480251
O       -1.8423794940    0.1481988084   -0.2717870953
H       -1.8260384473   -0.0461397019   -1.2342642645
