12   
Generated by ForceBalance from qchem.out: Frame 12 of 12
C        1.4852149662   -0.5527890711   -0.0912232295
C        0.6551928249    0.6784723434    0.2581106981
H        1.0558234491   -1.4420106307    0.3655262654
H        2.5109417346   -0.4372200685    0.2629784817
H        1.5170160828   -0.7115004443   -1.1712221503
H        0.6304787113    0.7951337620    1.3445003496
C       -0.7720091738    0.5929761813   -0.2565896163
H        1.1128501713    1.5851490966   -0.1471868230
H       -0.7879756172    0.7515629272   -1.3410995851
H       -1.3984398975    1.3621176546    0.2069879076
O       -1.2769785677   -0.7298452601    0.0445230055
H       -2.1981776241   -0.7533757123   -0.2995281182
