12   
Generated by ForceBalance from qchem.out: Frame 9 of 9
C        1.7315630864   -0.3993856871    0.0895100667
C        0.6021287045    0.5203797902   -0.3687412653
H        2.0103154209   -0.1865099911    1.1234302159
H        2.6220105440   -0.2758058466   -0.5293333001
H        1.4271833138   -1.4465960169    0.0313370543
H        0.9424568072    1.5572057664   -0.3033781409
C       -0.6804748041    0.3530373496    0.4484502540
H        0.3484687433    0.3357229620   -1.4135492581
H       -1.1225084974    1.3251051836    0.6797237178
H       -0.4790818874   -0.1507536306    1.3970239951
O       -1.6709870490   -0.3820259383   -0.3235151718
H       -1.8844882309   -1.1940543747    0.1840286035
