12   
Generated by ForceBalance from qchem.out: Frame 7 of 7
C       -1.7849555758   -0.2983931418    0.1692964669
C       -0.5800152702    0.3493495010   -0.5107971407
H       -1.5584112772   -1.3214638326    0.4774620820
H       -2.6471420355   -0.3343166108   -0.4987900195
H       -2.0768516963    0.2601487209    1.0607457633
H       -0.3163012380   -0.1969551152   -1.4185828216
C        0.6687204650    0.3951992324    0.3845246310
H       -0.8461205265    1.3599527824   -0.8287233900
H        0.4457255348    0.0108598317    1.3850384246
H        1.0343769482    1.4152852650    0.4988038299
O        1.7918633174   -0.3223988717   -0.1843205595
H        1.5882924908   -1.2767471227   -0.0624553529
