12   
Generated by ForceBalance from qchem.out: Frame 8 of 8
C        1.4759636174   -0.5656257380   -0.0496230425
C        0.6642767533    0.6982643336    0.2135636850
H        1.0404720705   -1.4081401791    0.4847889142
H        2.5081340566   -0.4412806331    0.2811694079
H        1.4959653661   -0.8100693637   -1.1147271024
H        0.6695173017    0.9014532244    1.2872439306
C       -0.7831695094    0.5783435976   -0.2525211097
H        1.1189230881    1.5655079325   -0.2739348237
H       -0.8405157269    0.6884942388   -1.3391775781
H       -1.3992283366    1.3617019615    0.1928637017
O       -1.3630660804   -0.6922838857    0.1427969745
H       -1.4017650591   -1.2431262954   -0.6679124715
