12   
Generated by ForceBalance from qchem.out: Frame 12 of 12
C        1.4936056167   -0.5449280927   -0.0577794759
C        0.6533736476    0.6834796869    0.2738313709
H        1.0281654487   -1.4409636689    0.3483481000
H        2.4983047499   -0.4516205739    0.3575372684
H        1.5851265553   -0.6758726928   -1.1379849051
H        0.5897432632    0.7915128122    1.3606126329
C       -0.7535625574    0.5970399138   -0.3040193779
H        1.1276373769    1.5937259396   -0.1049704097
H       -0.7136526590    0.7174641148   -1.3893292439
H       -1.3947274761    1.3871920715    0.0944429591
O       -1.3400176663   -0.7115708377   -0.0778271188
H       -1.9987099400   -0.6030785173    0.6420665620
