12   
Generated by ForceBalance from qchem.out: Frame 9 of 9
C        1.7796005434   -0.3066537241    0.1508269638
C        0.5663892198    0.4020807401   -0.4470967293
H        2.0697634378    0.1417909662    1.1032856350
H        2.6395563611   -0.2513273055   -0.5188490500
H        1.5580181841   -1.3602424727    0.3297454682
H        0.8117731962    1.4471542204   -0.6495256921
C       -0.6791990430    0.3095627330    0.4413800100
H        0.3071338725   -0.0518568749   -1.4048076822
H       -1.0109432992    1.3010351817    0.7586789625
H       -0.4687568177   -0.2703643709    1.3451400325
O       -1.7409539221   -0.3614884947   -0.2911335119
H       -2.5600958033    0.1579657260   -0.1422550594
