12   
Generated by ForceBalance from qchem.out: Frame 8 of 8
C        1.8569658633   -0.1573540815    0.1798360330
C        0.5321833801    0.5244994291   -0.1572638783
H        1.7896156703   -0.6770809122    1.1374999666
H        2.6686706857    0.5686200053    0.2479080705
H        2.1322557911   -0.8923837423   -0.5798620668
H        0.2756576835    1.2263245976    0.6393679694
C       -0.6236781633   -0.4678090200   -0.2781424726
H        0.6181824119    1.1112579059   -1.0736469414
H       -0.4342469381   -1.3430228659    0.3496498446
H       -0.7369028554   -0.8209303680   -1.3048609941
O       -1.8845137019    0.1461537158    0.0989181859
H       -2.1070734731   -0.2058070507    0.9869617008
