12   
Generated by ForceBalance from qchem.out: Frame 8 of 8
C        1.8895177458   -0.1254763651   -0.0115589994
C        0.5120120360    0.5310927766    0.0494357239
H        2.0336430909   -0.8088635364    0.8275965914
H        2.6838220717    0.6212819860    0.0252061606
H        2.0104207810   -0.6980199106   -0.9334452851
H        0.3977107627    1.1032547536    0.9722642234
C       -0.6131892877   -0.4889570080   -0.0242892159
H        0.4026740750    1.2391584535   -0.7773488847
H       -0.5796442902   -1.1571224030    0.8371375058
H       -0.5198410263   -1.1026999566   -0.9265969886
O       -1.9176433669    0.1341444565    0.0335791627
H       -2.0581746637    0.5415974416   -0.8501477366
