12   
Generated by ForceBalance from qchem.out: Frame 11 of 11
C        1.4422579570   -0.5565612586   -0.0417949381
C        0.6607112514    0.7520758884    0.0687947933
H        1.1835194474   -1.2470299388    0.7628656073
H        2.5120985806   -0.3592438574    0.0366579949
H        1.2735062533   -1.0548904407   -0.9992751602
H        0.8842251611    1.1920405371    1.0433393896
C       -0.8703645128    0.6216640722   -0.0942415991
H        1.0307395708    1.4571491513   -0.6781136996
H       -1.1626027711    1.0106289139   -1.0741451236
H       -1.3869587905    1.2142997934    0.6619921913
O       -1.4085723673   -0.7191184692    0.0075885627
H       -0.6577981334   -1.3425004938   -0.0733216225
