12   
Generated by ForceBalance from qchem.out: Frame 8 of 8
C        1.7005182848   -0.3670298997   -0.2136181165
C        0.5798057808    0.4314220679    0.4488360736
H        1.3854805533   -1.3939304393   -0.4092299256
H        2.5913426085   -0.4002370992    0.4159054490
H        1.9792465954    0.0844891383   -1.1669349300
H        0.3652848628    0.0366008054    1.4464173658
C       -0.7134284613    0.4550151144   -0.3759494074
H        0.9241501401    1.4564517308    0.6087188072
H       -0.5156913611    0.1405111817   -1.4039735478
H       -1.1281396347    1.4653795218   -0.4104070731
O       -1.7615182465   -0.4027891245    0.1471388789
H       -1.3995134484   -0.8313338773    0.9513292237
