12   
Generated by ForceBalance from qchem.out: Frame 8 of 8
C        1.4829615734   -0.5264667990   -0.1351504441
C        0.6416125390    0.6947962101    0.2251761520
H        1.0994231470   -1.4205262489    0.3580742147
H        2.5194509904   -0.3970549720    0.1793888172
H        1.4815967864   -0.7010487789   -1.2139545612
H        0.6336079184    0.8296384008    1.3089922182
C       -0.7973078193    0.5836319353   -0.2573767486
H        1.0845989156    1.5961658289   -0.2089199178
H       -0.8318694943    0.5406643060   -1.3514758568
H       -1.3796497103    1.4476405548    0.0636251922
O       -1.4807032290   -0.5590754988    0.3100018473
H       -1.1296220648   -1.3449212907   -0.1641768676
