12   
Generated by ForceBalance from qchem.out: Frame 12 of 12
C        1.4935064652   -0.5450377951    0.0571812699
C        0.6530706306    0.6829385734   -0.2755177834
H        1.5861166971   -0.6742606164    1.1375000815
H        2.4977901871   -0.4525082759   -0.3593123197
H        1.0275600774   -1.4416792406   -0.3470268834
H        1.1280180856    1.5937844328    0.1009858748
C       -0.7530960355    0.5978357255    0.3043906910
H        0.5879958467    0.7890032044   -1.3624048644
H       -1.3946183026    1.3874017655   -0.0946605270
H       -0.7117335809    0.7202071569    1.3894259909
O       -1.3401056848   -0.7110741681    0.0813548893
H       -1.9997483357   -0.6037611473   -0.6378445146
