12   
Generated by ForceBalance from qchem.out: Frame 12 of 12
C        1.4660607587   -0.5444091635   -0.1591710163
C        0.6552328818    0.6938700618    0.2097537203
H        1.0746135768   -1.4269506837    0.3440086638
H        2.5130916692   -0.4210815013    0.1219497067
H        1.4225045179   -0.7317085453   -1.2336839246
H        0.7236729908    0.8602220381    1.2900599579
C       -0.8129818009    0.5775043804   -0.1833561591
H        1.0725374883    1.5867718060   -0.2643712736
H       -0.9209727862    0.6307621961   -1.2674361416
H       -1.3973502106    1.3933843838    0.2549904700
O       -1.3898293898   -0.7030542199    0.1621116376
H       -1.3006205915   -0.7814764364    1.1396446558
