12   
Generated by ForceBalance from qchem.out: Frame 12 of 12
C        1.7215529326   -0.3797855836   -0.1285572971
C        0.5787109847    0.4806884038    0.4044639514
H        1.4266525822   -1.4300565006   -0.1644459851
H        2.6089147065   -0.2988046696    0.5016270622
H        1.9986749524   -0.0729854700   -1.1388600028
H        0.3350179322    0.1927744949    1.4287683997
C       -0.7001871892    0.3553203727   -0.4350929797
H        0.9027722110    1.5246164585    0.4371601487
H       -0.4957567604   -0.1566153331   -1.3764740635
H       -1.1136848802    1.3375703673   -0.6791193568
O       -1.7088986107   -0.4514213205    0.2270726186
H       -2.2438410820    0.1730922619    0.7639290332
