12   
Generated by ForceBalance from qchem.out: Frame 8 of 8
C        1.8885016608   -0.1200508276    0.0125147576
C        0.5024979709    0.5202151471    0.0317059876
H        2.0282988036   -0.7706914298    0.8776286222
H        2.6719984883    0.6385076192    0.0329233680
H        2.0271534509   -0.7227354944   -0.8870115525
H        0.3724141228    1.1199779115    0.9359956821
C       -0.6106119475   -0.5121841034   -0.0333579565
H        0.4012216199    1.1993444548   -0.8211158051
H       -0.5745584523   -1.1777528600    0.8304966285
H       -0.4983126936   -1.1229104450   -0.9362570830
O       -1.9287626269    0.0859187287   -0.0156683538
H       -1.8311896674    0.9659486318   -0.4420773481
