12   
Generated by ForceBalance from qchem.out: Frame 8 of 8
C        1.5258694277   -0.5346920150   -0.0641431274
C        0.6431223577    0.6612250337    0.2758876447
H        1.0747654000   -1.4533277326    0.3107936577
H        2.5159383818   -0.4355661724    0.3832235600
H        1.6560478731   -0.6315698173   -1.1447533990
H        0.5446650024    0.7502386345    1.3600463425
C       -0.7503708122    0.5438422608   -0.3196026753
H        1.0997488248    1.5889066779   -0.0826065354
H       -0.7023256564    0.5254960881   -1.4121629132
H       -1.3664327893    1.3963792589   -0.0264670308
O       -1.4223052945   -0.6434738023    0.1779768015
H       -1.4108843235   -1.2979922253   -0.5528853584
