12   
Generated by ForceBalance from qchem.out: Frame 8 of 8
C        1.4136431732   -0.5937785786   -0.0782730034
C        0.6867008553    0.7316234783    0.1253816076
H        1.0498267662   -1.3393604571    0.6248603549
H        2.4869147776   -0.4630954484    0.0707243889
H        1.2586547792   -0.9827295981   -1.0865346095
H        0.8674689673    1.0670375441    1.1498652760
C       -0.8233842079    0.6422513298   -0.1119251737
H        1.0970794184    1.5061827077   -0.5276754227
H       -1.0386543775    0.8530839120   -1.1630755539
H       -1.3597995854    1.3812793975    0.4894420451
O       -1.3106342545   -0.6855585288    0.2146456525
H       -1.9107675751   -0.9487952273   -0.5150502254
