12   
Generated by ForceBalance from qchem.out: Frame 7 of 7
C        1.7189369033   -0.3743532259    0.1531068203
C        0.5866568651    0.4568010903   -0.4446543024
H        2.0214393362    0.0202963519    1.1250149976
H        2.5961870944   -0.3739289424   -0.4962110454
H        1.4025770551   -1.4097991381    0.2922810734
H        0.9257349533    1.4879568865   -0.5707410002
C       -0.6835353192    0.4339298567    0.4027204590
H        0.3192077728    0.0881590589   -1.4361711292
H       -1.1106677527    1.4374168331    0.4997779687
H       -0.4778059699    0.0589527845    1.4109274623
O       -1.6317929754   -0.4307768583   -0.2730948897
H       -2.4437262982   -0.4359937582    0.2830791423
