12   
Generated by ForceBalance from qchem.out: Frame 8 of 8
C        1.8857718359   -0.1227003113    0.0888517501
C        0.5204075718    0.5297407353   -0.1182914013
H        1.9289389107   -0.6341337177    1.0524342968
H        2.6849104163    0.6196257461    0.0667586710
H        2.0947980765   -0.8596728307   -0.6896067305
H        0.3434691833    1.2592330829    0.6765436129
C       -0.6155801640   -0.4844976898   -0.0882639325
H        0.4867697861    1.0799778006   -1.0604009012
H       -0.4574514889   -1.2094864466    0.7162231624
H       -0.6666767853   -1.0394634569   -1.0262284118
O       -1.9045148751    0.1599849151    0.0653718209
H       -2.0638300534    0.2174449871    1.0325775597
