12   
Generated by ForceBalance from qchem.out: Frame 7 of 7
C        1.4621772030   -0.5569768012    0.0875072879
C        0.6467542796    0.6874784058   -0.2457989157
H        1.5067595375   -0.7160787063    1.1667678313
H        2.4841063517   -0.4628666075   -0.2831658975
H        1.0075367173   -1.4392081877   -0.3592978185
H        1.1134498176    1.5825850644    0.1761147378
C       -0.7841223644    0.6014865947    0.2723083369
H        0.6308408212    0.8275740805   -1.3310790216
H       -1.3996372994    1.4137750832   -0.1240448535
H       -0.7871862446    0.6820165707    1.3610444452
O       -1.3901902181   -0.6866678297   -0.0010904281
H       -1.8240974475   -0.6059605606   -0.8794255984
