12   
Generated by ForceBalance from qchem.out: Frame 8 of 8
C        1.8936287616   -0.1243170346    0.1000577852
C        0.5291220009    0.5261487885   -0.1190107082
H        1.9085296276   -0.6696997792    1.0450704505
H        2.6869880536    0.6240192704    0.1292783528
H        2.1317481253   -0.8306381496   -0.6983542822
H        0.3124961866    1.1979864818    0.7144087785
C       -0.6021017267   -0.4975073579   -0.1701957474
H        0.5342771474    1.1352642610   -1.0269221977
H       -0.3886551172   -1.3185152886    0.5156460263
H       -0.7160471046   -0.9232552369   -1.1720769731
O       -1.8574984635    0.0412333690    0.3094660878
H       -2.1911795625    0.6286713640   -0.4055353149
