12   
Generated by ForceBalance from qchem.out: Frame 12 of 12
C        1.8125137583   -0.3219166039    0.0068063769
C        0.5649559424    0.5191447727   -0.2574346587
H        2.1016205604   -0.2846787491    1.0594302405
H        2.6601014478    0.0319519495   -0.5825308671
H        1.6350399844   -1.3670323295   -0.2542258819
H        0.7717839339    1.5726106451   -0.0587384796
C       -0.6490707156    0.0537568740    0.5536234041
H        0.2914129902    0.4470686058   -1.3114958819
H       -0.8600709933    0.7334368404    1.3824643334
H       -0.4588154450   -0.9337274519    0.9821412594
O       -1.8332904643    0.0033680472   -0.2890321456
H       -2.1475856071   -0.9253788654   -0.2756764146
