12   
Generated by ForceBalance from qchem.out: Frame 8 of 8
C        1.5225437772   -0.5142921248    0.1154444743
C        0.6214375771    0.6414877858   -0.3058744716
H        1.6829457744   -0.5058929808    1.1955006946
H        2.4974875322   -0.4512039808   -0.3705226990
H        1.0635529593   -1.4658841690   -0.1512548662
H        1.0769358179    1.5974947513   -0.0287202797
C       -0.7525214412    0.5553306693    0.3347127659
H        0.4997172295    0.6466092382   -1.3917599209
H       -1.3665101796    1.4134665651    0.0500717203
H       -0.6662751591    0.5522887503    1.4249774971
O       -1.3972652529   -0.6866756909   -0.0587888453
H       -2.2237327212   -0.4387621150   -0.5253265311
