12   
Generated by ForceBalance from qchem.out: Frame 8 of 8
C        1.8913318995   -0.1369345221    0.0765599415
C        0.5279670000    0.5225180999   -0.1160683624
H        1.9427522650   -0.6466338930    1.0405302577
H        2.6924288110    0.6029978982    0.0451229735
H        2.0896388007   -0.8752423147   -0.7036880746
H        0.3456484923    1.2385069944    0.6882830056
C       -0.6059183608   -0.4843144905   -0.0938821106
H        0.4935684478    1.0819547477   -1.0528357144
H       -0.4761050230   -1.1852762218    0.7385678949
H       -0.6261596142   -1.0652622625   -1.0218130206
O       -1.8368895401    0.2588599606    0.0764866327
H       -2.5675327402   -0.3581538906   -0.1526244522
