12   
Generated by ForceBalance from qchem.out: Frame 9 of 9
C        1.8334409094   -0.1377999379    0.2509691543
C        0.5617796775    0.5192682356   -0.2810248877
H        1.6723216921   -0.5223928278    1.2595009262
H        2.6611956689    0.5724443252    0.2877378016
H        2.1393645664   -0.9735117964   -0.3818615481
H        0.2712549070    1.3410248932    0.3756162361
C       -0.6275912918   -0.4503372889   -0.3419203026
H        0.7546228225    0.9529876371   -1.2654468463
H       -0.3430711368   -1.4232554044    0.0643435338
H       -0.9634247613   -0.6124511672   -1.3687345942
O       -1.7311520923    0.0097643291    0.4839904265
H       -2.4116183650    0.3620081644   -0.1290637677
