12   
Generated by ForceBalance from qchem.out: Frame 7 of 7
C        1.5704951629   -0.4851021832   -0.1412844865
C        0.6224472094    0.6026498623    0.3536704288
H        1.1311820945   -1.4707779417    0.0152400198
H        2.5251655918   -0.4477723865    0.3860188285
H        1.7706966751   -0.3667023918   -1.2080706420
H        0.4645974949    0.5194126549    1.4307202787
C       -0.7347598708    0.5415705005   -0.3198656383
H        1.0609193507    1.5875226890    0.1676423117
H       -0.6265495175    0.4112318061   -1.4022463938
H       -1.2944441589    1.4662518492   -0.1423370350
O       -1.4438873674   -0.5798960478    0.2626334684
H       -2.3218796958   -0.6113220069   -0.1800199537
