12   
Generated by ForceBalance from qchem.out: Frame 8 of 8
C        1.4524063635   -0.5743378403   -0.0441847045
C        0.6760556711    0.7151119294    0.2048020091
H        1.0169614089   -1.3951703784    0.5210949561
H        2.4946463192   -0.4539921108    0.2560246310
H        1.4328457897   -0.8513171501   -1.0997471201
H        0.7256324579    0.9454357134    1.2728810598
C       -0.7889939679    0.6266222002   -0.2275976721
H        1.1410731218    1.5569018550   -0.3150850009
H       -0.8787200867    0.8931358874   -1.2841859258
H       -1.4073421405    1.3247088557    0.3408549196
O       -1.2915547547   -0.7311432936   -0.1082942382
H       -2.0437900830   -0.7016259855    0.5211279223
