12   
Generated by ForceBalance from qchem.out: Frame 8 of 8
C        1.4116240966   -0.5938474630    0.0868534374
C        0.6991896594    0.7446663389   -0.0808078953
H        1.2400517267   -1.0176247357    1.0790286100
H        2.4884927781   -0.4715541817   -0.0396406220
H        1.0511905595   -1.3084289762   -0.6499946782
H        1.0893043684    1.4841459246    0.6234953325
C       -0.8225411518    0.6487241904    0.0914457861
H        0.9195203627    1.1249318925   -1.0813024634
H       -1.3296440851    1.3951678972   -0.5219001896
H       -1.0952293182    0.8401264756    1.1326592108
O       -1.3405148493   -0.6468076742   -0.3091629916
H       -1.5492030547   -1.1291053265    0.5188996036
