12   
Generated by ForceBalance from qchem.out: Frame 8 of 8
C        1.4474094782   -0.5786253713    0.0701284606
C        0.7018256763    0.7415439166   -0.1043505551
H        1.2550257877   -1.0165027754    1.0497718068
H        2.5224101514   -0.4199259725   -0.0315390372
H        1.1363061756   -1.3047450161   -0.6788877358
H        1.0797114611    1.4851100445    0.6010810890
C       -0.8224324894    0.6138622262    0.0780824815
H        0.9217368842    1.1316776718   -1.1022923183
H       -1.3624791555    1.2304943286   -0.6445751017
H       -1.1035157924    0.9576953996    1.0742019265
O       -1.2987433724   -0.7545060457    0.0366324688
H       -1.5076663168   -0.9482200313   -0.9040946013
