12   
Generated by ForceBalance from qchem.out: Frame 8 of 8
C        1.4328069697   -0.5729730481   -0.0996297656
C        0.6811701872    0.7458245404    0.0701185640
H        1.1971909777   -1.2746918562    0.7000405464
H        2.5094478559   -0.3968097878   -0.0778159456
H        1.1812187320   -1.0542241634   -1.0448639305
H        0.9468650319    1.1721344804    1.0415770545
C       -0.8509932886    0.6102975802   -0.0311884817
H        1.0209389878    1.4650922349   -0.6783398334
H       -1.1935682580    0.9224714431   -1.0174928186
H       -1.3456051868    1.2484307939    0.7075208966
O       -1.3416490094   -0.7465054986    0.0736874877
H       -1.0525213790   -1.0745589971    0.9549094261
