12   
Generated by ForceBalance from qchem.out: Frame 7 of 7
C        1.8943019824   -0.1383492476    0.0113015932
C        0.5180242954    0.5218449800   -0.0151567825
H        2.0100026112   -0.7684611232    0.8956767832
H        2.6873857545    0.6105519159    0.0291465815
H        2.0470827818   -0.7658035094   -0.8692845711
H        0.3829665330    1.1561104526    0.8631819775
C       -0.6031654741   -0.4967183086   -0.0414232080
H        0.4193369541    1.1659813670   -0.8914181200
H       -0.5506770280   -1.1369490595    0.8457020090
H       -0.5222206572   -1.1392506834   -0.9254371009
O       -1.8511154901    0.2365674421   -0.0650079509
H       -2.5562342096   -0.4097079568    0.1626927513
