12   
Generated by ForceBalance from qchem.out: Frame 9 of 9
C        1.4083982279   -0.5998041853    0.0007507435
C        0.6946053591    0.7496105987    0.0212103272
H        1.1180620328   -1.2113581927    0.8536483140
H        2.4886974818   -0.4477126508    0.0362917573
H        1.1674254815   -1.1593983286   -0.9019438548
H        0.9827575346    1.2896312446    0.9263641762
C       -0.8424958321    0.6475193011   -0.0441071568
H        1.0479841698    1.3545570662   -0.8167695597
H       -1.2249095618    1.1596236526   -0.9309574055
H       -1.2913485959    1.1287077897    0.8275953971
O       -1.2686737750   -0.7398380470   -0.1116359066
H       -2.0124253830   -0.8340443301    0.5213009623
