12   
Generated by ForceBalance from qchem.out: Frame 9 of 9
C        1.6708647747   -0.4476113579   -0.0752110852
C        0.6008883433    0.5514466963    0.3542049910
H        1.2971283849   -1.4691297129    0.0152468157
H        2.5674643576   -0.3599376302    0.5407416939
H        1.9599945664   -0.2815579809   -1.1148086919
H        0.3481774879    0.4274015135    1.4086460730
C       -0.6865446615    0.4156131942   -0.4448564087
H        0.9891557210    1.5672147702    0.2362122084
H       -0.4765944785    0.0748377637   -1.4629390809
H       -1.2113362504    1.3740999687   -0.5124193977
O       -1.5349508005   -0.5347277517    0.2526257082
H       -2.0826131314   -0.9799389817   -0.4312529265
