12   
Generated by ForceBalance from qchem.out: Frame 8 of 8
C        1.4310004278   -0.5791090842   -0.1199328463
C        0.6838515743    0.7211112871    0.1554527894
H        1.0207001655   -1.3828341721    0.4882314902
H        2.4921929161   -0.4728235646    0.1104585662
H        1.3454227123   -0.8699642793   -1.1697849750
H        0.7954283353    0.9740901192    1.2128557376
C       -0.8023590489    0.6302802811   -0.1708296185
H        1.1145544228    1.5504480342   -0.4129633610
H       -0.9472724306    0.6787539301   -1.2536985069
H       -1.3509489763    1.4633794007    0.2752460188
O       -1.3624560237   -0.6072400957    0.3428696987
H       -1.7151126405   -1.0976646809   -0.4294504820
