12   
Generated by ForceBalance from qchem.out: Frame 8 of 8
C        1.8567267735   -0.1513601831   -0.1661977041
C        0.5231974536    0.5118376054    0.1729258443
H        2.1107665804   -0.9251808391    0.5612270909
H        2.6685095891    0.5773866664   -0.1747807103
H        1.8094354001   -0.6185121258   -1.1509016817
H        0.5876278129    1.0471994314    1.1237218401
C       -0.6333608369   -0.4836757894    0.2060286734
H        0.2984686867    1.2527543423   -0.5995345889
H       -0.7150470748   -0.9496403538    1.1936550508
H       -0.4721071763   -1.2769224515   -0.5258302592
O       -1.9022300469    0.1107239754   -0.1631495913
H       -1.8515893491    1.0526706632    0.1122835020
