12   
Generated by ForceBalance from qchem.out: Frame 12 of 12
C        1.7921073428   -0.0742434775   -0.3170867119
C        0.5565265207    0.4327993222    0.4244516814
H        2.1061481218   -1.0461753993    0.0680451039
H        2.6314132478    0.6147616134   -0.2086062435
H        1.5894164246   -0.1897176275   -1.3840503693
H        0.7967254316    0.5610605931    1.4822800281
C       -0.6614608240   -0.4927662324    0.2713437593
H        0.2746514689    1.4223236689    0.0574661241
H       -1.0392765778   -0.8205056332    1.2391630366
H       -0.3934315784   -1.3879730313   -0.3004183327
O       -1.7957279767    0.1619217291   -0.3460381605
H       -1.4833618301    0.4505967261   -1.2331290825
