12   
Generated by ForceBalance from qchem.out: Frame 8 of 8
C        1.8552943954   -0.1471340388   -0.1788766925
C        0.5259748229    0.4994219912    0.2058138389
H        2.1117863513   -0.9603724290    0.5031740945
H        2.6688176939    0.5792160266   -0.1524449009
H        1.8001290225   -0.5592704674   -1.1874095343
H        0.5964321060    0.9824679698    1.1834113439
C       -0.6328938471   -0.4943094086    0.1889646105
H        0.3049926060    1.2840496610   -0.5243368560
H       -0.7195155579   -1.0041035966    1.1532187555
H       -0.4629711130   -1.2541416615   -0.5771558543
O       -1.9073000104    0.1158008412   -0.1375161927
H       -1.7836568869    1.0846757346   -0.0406790488
