12   
Generated by ForceBalance from qchem.out: Frame 8 of 8
C        1.8758306269   -0.1399320392    0.1386312585
C        0.5319400258    0.5239449181   -0.1527425310
H        1.8600271222   -0.6274079454    1.1150879968
H        2.6835228687    0.5936893820    0.1415641437
H        2.1183419383   -0.8973882308   -0.6102774513
H        0.3048478180    1.2452898759    0.6346241836
C       -0.6155380233   -0.4756411054   -0.1807049609
H        0.5687850860    1.0804001581   -1.0912519363
H       -0.4026767082   -1.2999690676    0.5084606650
H       -0.7544707755   -0.9029581932   -1.1794311992
O       -1.8126939699    0.2181125436    0.2500177967
H       -2.4736854929   -0.4791566834    0.4595394498
