12   
Generated by ForceBalance from qchem.out: Frame 7 of 7
C        1.4568178122   -0.5401393882    0.0717798690
C        0.6543060347    0.7413204837   -0.1529663404
H        1.2724935144   -0.9678268891    1.0599046237
H        2.5249616119   -0.3328278044   -0.0049350603
H        1.2295284545   -1.2964432570   -0.6818532147
H        1.0445936887    1.5399187333    0.4815843302
C       -0.8523790460    0.6111853308    0.1168639034
H        0.8134983657    1.0609420437   -1.1860598253
H       -1.4149754567    1.3129475680   -0.5008974289
H       -1.0483567302    0.8589354138    1.1651081927
O       -1.4174987353   -0.6997537172   -0.1222685539
H       -0.6704545077   -1.3294927597   -0.1877561621
