12   
Generated by ForceBalance from qchem.out: Frame 7 of 7
C        1.6136850360   -0.4702509512    0.1205706233
C        0.6253377273    0.5895831202   -0.3542300337
H        1.8436879998   -0.3338787654    1.1788704270
H        2.5503196665   -0.4210018915   -0.4371763887
H        1.1898535563   -1.4670513313   -0.0086934077
H        1.0434169032    1.5860350148   -0.1789406255
C       -0.7162016703    0.4843881633    0.3584498488
H        0.4541923169    0.5041959181   -1.4302303158
H       -1.2909688264    1.4091499324    0.2536596446
H       -0.5729175119    0.2997593325    1.4243036624
O       -1.4891575706   -0.6391820405   -0.1374683727
H       -2.0234348209   -0.2890237709   -0.8834361462
