12   
Generated by ForceBalance from qchem.out: Frame 8 of 8
C        1.4036119097   -0.6020616078    0.0383512101
C        0.6896792123    0.7386290107   -0.1100928922
H        1.2293027546   -1.0371821976    1.0226102140
H        2.4789529741   -0.4725839079   -0.0957669108
H        1.0497605914   -1.3172801432   -0.7021260157
H        1.1052058402    1.4670593909    0.5899829014
C       -0.8320668758    0.6505483878    0.1120375256
H        0.8943817508    1.1292423120   -1.1110185150
H       -1.3738659101    1.2857547876   -0.5930026460
H       -1.0776674903    0.9959581226    1.1169730836
O       -1.3457493558   -0.7044285698    0.0766769174
H       -1.5846064997   -0.8876549901   -0.8590473608
