12   
Generated by ForceBalance from qchem.out: Frame 9 of 9
C        1.4136948522   -0.5951315683   -0.0374871687
C        0.6880995694    0.7402613894    0.1027769149
H        1.0576371373   -1.3077646719    0.7034886556
H        2.4870305100   -0.4540622577    0.1013323156
H        1.2502020446   -1.0352072371   -1.0216117190
H        0.8859009697    1.1336842829    1.1035970053
C       -0.8311998306    0.6423170646   -0.1202112418
H        1.1000451721    1.4701480722   -0.5979484498
H       -1.0852929021    1.0120603223   -1.1164848670
H       -1.3721918967    1.2568332171    0.6020961643
O       -1.2958847710   -0.7334914406   -0.0708286785
H       -1.9480467812   -0.7866222682    0.6602707916
