12   
Generated by ForceBalance from qchem.out: Frame 8 of 8
C        1.9027997500   -0.1376512411    0.0472827906
C        0.5381464092    0.5412472926   -0.0466819926
H        1.9712489583   -0.7426051691    0.9533540944
H        2.7074855463    0.5984812669    0.0736106181
H        2.0800085612   -0.7943966089   -0.8073377440
H        0.3783377444    1.1782325757    0.8256638932
C       -0.6021303877   -0.4636465182   -0.0885003851
H        0.4891459027    1.1893845867   -0.9252014952
H       -0.4705308502   -1.2051334141    0.7030362157
H       -0.6248584606   -0.9993527696   -1.0413888803
O       -1.8721485343    0.1868557797    0.1753851139
H       -2.3376180981    0.2554555779   -0.6858570388
