12   
Generated by ForceBalance from qchem.out: Frame 8 of 8
C        1.8940352979   -0.1455691215   -0.0843440336
C        0.5347712500    0.5329585880    0.0697485185
H        2.0885044737   -0.8378779964    0.7378959241
H        2.7000843924    0.5895595254   -0.0968798904
H        1.9413712027   -0.7116166707   -1.0166628049
H        0.5087448973    1.1520381585    0.9687938998
C       -0.6040439632   -0.4700168562    0.1124563985
H        0.3536870377    1.1961797119   -0.7783194243
H       -0.6321676747   -1.0002588306    1.0702159789
H       -0.4631886197   -1.2146674590   -0.6774654854
O       -1.8456623189    0.2479696522   -0.0998808487
H       -2.4579423683   -0.3800092216   -0.5418002659
