12   
Generated by ForceBalance from qchem.out: Frame 9 of 9
C        1.8357429673   -0.0950624050   -0.2413826087
C        0.5394182444    0.4815784907    0.3244666864
H        2.1215911204   -1.0096767503    0.2820830601
H        2.6599079321    0.6137229578   -0.1463424861
H        1.7215454631   -0.3395134216   -1.2992114517
H        0.6823667830    0.7912839499    1.3616104577
C       -0.6416654541   -0.4941123657    0.2182489887
H        0.2780867789    1.3883702655   -0.2272777233
H       -0.9110153199   -0.9092286953    1.1888231970
H       -0.3798863875   -1.3311738766   -0.4387576989
O       -1.8540278753    0.1327004545   -0.2623431501
H       -1.6315812911    0.4848306035   -1.1531801404
