12   
Generated by ForceBalance from qchem.out: Frame 7 of 7
C        1.4656920474   -0.5538864811    0.0914209182
C        0.6470151335    0.6873474801   -0.2462025221
H        1.5104729365   -0.7102549801    1.1711748214
H        2.4876217998   -0.4572820245   -0.2786502501
H        1.0133130557   -1.4374279228   -0.3549012777
H        1.1109189326    1.5848732394    0.1737672859
C       -0.7827538178    0.5977161990    0.2718087487
H        0.6294359432    0.8220425428   -1.3316653928
H       -1.4020716134    1.4007155541   -0.1354513983
H       -0.7871937043    0.6942590808    1.3601917943
O       -1.3673407448   -0.7015279178   -0.0075997240
H       -1.9954293509   -0.5724153496   -0.7510512337
