12   
Generated by ForceBalance from qchem.out: Frame 12 of 12
C        1.4552243262   -0.5524016130    0.0150144540
C        0.6628412291    0.7496137030   -0.0967007095
H        1.3092366724   -1.0396071452    0.9819242112
H        2.5219031945   -0.3491900601   -0.0876889475
H        1.1848948735   -1.2547022241   -0.7754597911
H        1.0427795263    1.4676005116    0.6326621880
C       -0.8637607310    0.6112143848    0.0981356497
H        0.8636686567    1.1771859405   -1.0816894045
H       -1.3994300872    1.1911637926   -0.6546354596
H       -1.1388501147    1.0102967851    1.0789727746
O       -1.3945009460   -0.7343322455    0.0238734276
H       -0.6379843101   -1.3516148560    0.0978305165
