12   
Generated by ForceBalance from qchem.out: Frame 8 of 8
C        1.6237194284   -0.4602304524   -0.1115422553
C        0.6115752842    0.5686030625    0.3834743295
H        1.2089148866   -1.4665742623   -0.0422565665
H        2.5419456752   -0.4277584907    0.4772754345
H        1.8854983953   -0.2715710600   -1.1544859623
H        0.3878697746    0.4189871266    1.4410992487
C       -0.6967828805    0.5104988073   -0.3833798549
H        1.0323417349    1.5734474336    0.2795837287
H       -0.5200949789    0.4499057052   -1.4625075484
H       -1.2867116497    1.4108124820   -0.1872051416
O       -1.4238527571   -0.6618784822    0.0691794073
H       -2.3784040603   -0.4502723702   -0.0235864363
