12   
Generated by ForceBalance from qchem.out: Frame 12 of 12
C        1.7737697068   -0.3085523637    0.1647446489
C        0.5658642220    0.3877131771   -0.4579323564
H        2.0624794569    0.1660560567    1.1048741784
H        2.6362429048   -0.2761799085   -0.5032230034
H        1.5471018784   -1.3556858471    0.3730203359
H        0.8180736342    1.4232887425   -0.6963819808
C       -0.6795715610    0.3370807029    0.4314591609
H        0.3027321131   -0.0969712879   -1.3994539702
H       -1.0113110269    1.3437792191    0.6997423471
H       -0.4747537619   -0.2020442807    1.3623596913
O       -1.7293821483   -0.3536732182   -0.2966929065
H       -2.5813297377    0.0226273146    0.0162379938
