12   
Generated by ForceBalance from qchem.out: Frame 8 of 8
C        1.8926349276   -0.1160404363   -0.0424928369
C        0.5072469877    0.5163494115    0.0681707081
H        2.0865470121   -0.7884068104    0.7955629467
H        2.6729384749    0.6461144858   -0.0473147158
H        1.9784557012   -0.6938415207   -0.9640714711
H        0.4379081108    1.1331264071    0.9686044524
C       -0.6049472205   -0.5212276995    0.0773099973
H        0.3462261956    1.1768045429   -0.7890061930
H       -0.6217946740   -1.0538372126    1.0333265361
H       -0.4423361690   -1.2554445856   -0.7148828116
O       -1.9133106026    0.0537329847   -0.1660940909
H       -1.8155822895    1.0229596563   -0.0429865725
