12   
Generated by ForceBalance from qchem.out: Frame 12 of 12
C        1.8327428051   -0.1263004781   -0.2587057924
C        0.5619342416    0.4994305089    0.3117235431
H        2.1473406791   -0.9891713218    0.3320473672
H        2.6567693784    0.5891870990   -0.2676488413
H        1.6668488928   -0.4638469379   -1.2832163131
H        0.7548381707    0.8719855879    1.3206371211
C       -0.6294224310   -0.4675932853    0.3151258046
H        0.2711260651    1.3600171799   -0.2927035684
H       -0.9739527641   -0.6717383533    1.3312732017
H       -0.3457908927   -1.4244443862   -0.1309686322
O       -1.7179336451    0.0669439901   -0.4878116224
H       -2.4897031092    0.1647799722    0.1095389034
