12   
Generated by ForceBalance from qchem.out: Frame 6 of 6
C        1.5433840828   -0.5011905852    0.1525883379
C        0.6360436018    0.6324501876   -0.3136694856
H        1.6885651372   -0.4575312146    1.2335880555
H        2.5238207857   -0.4442201199   -0.3227116699
H        1.0978181313   -1.4667422208   -0.0855798823
H        1.0710356133    1.6015104795   -0.0506455507
C       -0.7579423846    0.5456989879    0.2887550788
H        0.5497306912    0.6198722667   -1.4051849852
H       -1.3640568299    1.4062055022   -0.0146653934
H       -0.7083338487    0.5340360525    1.3781673918
O       -1.4313284338   -0.6868780808   -0.0599033486
H       -1.4864943532   -0.6883170854   -1.0427089141
