12   
Generated by ForceBalance from qchem.out: Frame 7 of 7
C        1.4340745908   -0.5767998922    0.0745754733
C        0.6800187179    0.7302002176   -0.1542936876
H        1.3144156503   -0.9316640737    1.0996705683
H        2.4996727859   -0.4333014707   -0.1126312918
H        1.0634073718   -1.3526703735   -0.5913202798
H        1.0923917526    1.5313520443    0.4640730011
C       -0.8185660936    0.6253109102    0.1218187641
H        0.8291658789    1.0334179068   -1.1938055776
H       -1.3773495599    1.3445240509   -0.4852597451
H       -1.0202553845    0.8490673211    1.1753509929
O       -1.2488394185   -0.7282403207   -0.1604095279
H       -2.2136503893   -0.7476419655    0.0305021139
