12   
Generated by ForceBalance from qchem.out: Frame 9 of 9
C        1.3962230530   -0.6101315135    0.0363641103
C        0.6990492413    0.7456221755   -0.0360815193
H        1.1659918021   -1.1292876528    0.9679841757
H        2.4784801224   -0.4793689572   -0.0156862351
H        1.0811785959   -1.2502814709   -0.7851600193
H        1.0652811029    1.3974388368    0.7610340786
C       -0.8385398448    0.6569317632    0.0446708404
H        0.9802254448    1.2271886841   -0.9753974756
H       -1.2995672671    1.2798533746   -0.7229809744
H       -1.1912828943    1.0207263909    1.0124774031
O       -1.3361191512   -0.6893865223   -0.1741990248
H       -1.6031585803   -1.0331476187    0.7048260528
