12   
Generated by ForceBalance from qchem.out: Frame 8 of 8
C        1.8413601672   -0.1918749799   -0.2137390405
C        0.5626193301    0.5414218010    0.1857679530
H        2.1162638470   -0.9451448811    0.5279713496
H        2.6794502025    0.5004935747   -0.3095397201
H        1.7106586862   -0.6973967085   -1.1723121168
H        0.7226372889    1.1060482720    1.1064778002
C       -0.6336268548   -0.3985108551    0.3373779388
H        0.2998762503    1.2655084970   -0.5872461863
H       -0.8696060453   -0.5905094466    1.3886840482
H       -0.4102255275   -1.3614088372   -0.1321257676
O       -1.7774922605    0.2061402472   -0.3218079267
H       -2.3373291130   -0.5350312857   -0.6416466134
