12   
Generated by ForceBalance from qchem.out: Frame 8 of 8
C        1.4505421161   -0.5770514729    0.0680814518
C        0.6742540524    0.7131269640   -0.1810114707
H        1.3861109240   -0.8849161588    1.1130870131
H        2.5039605544   -0.4355050937   -0.1797624634
H        1.0535269401   -1.3853624714   -0.5417572695
H        1.1161036365    1.5458271996    0.3719665067
C       -0.8043958153    0.6147539936    0.1886962244
H        0.7600803786    0.9654503463   -1.2410169495
H       -1.4037750915    1.2993250482   -0.4197364219
H       -0.9456262135    0.8904962649    1.2396962209
O       -1.2394860380   -0.7536208166    0.0007810596
H       -2.1911367265   -0.7685243244    0.2494460102
