12   
Generated by ForceBalance from qchem.out: Frame 8 of 8
C        1.8523535224   -0.1292963523    0.2069493986
C        0.5352562433    0.4576224452   -0.2965520895
H        1.7772953795   -0.3881839763    1.2642718083
H        2.6712366510    0.5817859066    0.0889207865
H        2.1164783213   -1.0357203025   -0.3415950795
H        0.3163341188    1.3550239803    0.2917915980
C       -0.6328961874   -0.5158507791   -0.1396244024
H        0.6222501464    0.7846914058   -1.3347640170
H       -0.4393239937   -1.1767302384    0.7130455408
H       -0.7563004965   -1.1414875699   -1.0242965799
O       -1.9078669254    0.1378494782    0.0662640796
H       -1.7086264172    0.9798519600    0.5305136248
