12   
Generated by ForceBalance from qchem.out: Frame 8 of 8
C        1.8566185734   -0.2010897183   -0.1569814110
C        0.5488598170    0.5431878189    0.1065665318
H        2.1255621204   -0.8449746383    0.6834259128
H        2.6814382020    0.4947409828   -0.3182918385
H        1.7692747675   -0.8306883000   -1.0445334366
H        0.6542115621    1.2286240430    0.9494917631
C       -0.6262563293   -0.4039285801    0.3464098283
H        0.3008101565    1.1546336012   -0.7638072503
H       -0.7387165565   -0.6352339765    1.4073028477
H       -0.4597356022   -1.3489035052   -0.1782963953
O       -1.8770404732    0.1894554769   -0.0919748986
H       -2.1132896678   -0.2572265466   -0.9326056473
