12   
Generated by ForceBalance from qchem.out: Frame 7 of 7
C        1.8911826670   -0.1162085242   -0.0072866436
C        0.4999975331    0.5122876554    0.0172429776
H        2.0331723609   -0.7808571445    0.8467263334
H        2.6680340141    0.6485347209    0.0291487424
H        2.0373813864   -0.7014339700   -0.9169639553
H        0.3721046922    1.1110228705    0.9231267913
C       -0.6050439617   -0.5287209337   -0.0399135805
H        0.3875389930    1.1890641155   -0.8356271180
H       -0.5447092166   -1.2005720107    0.8190338459
H       -0.5028999543   -1.1307841172   -0.9486142591
O       -1.9300359468    0.0579511087   -0.0171452548
H       -1.8113250286    1.0126994136   -0.2133407371
