12   
Generated by ForceBalance from qchem.out: Frame 7 of 7
C        1.8520903627   -0.1469845440   -0.2111415302
C        0.5465720723    0.5106526023    0.2327583644
H        2.1245817140   -0.9720568234    0.4502252599
H        2.6762877737    0.5680337047   -0.2088232876
H        1.7511278779   -0.5458547351   -1.2215650197
H        0.6683169488    0.9790755829    1.2124259271
C       -0.6333099364   -0.4677012283    0.2467799630
H        0.3040353499    1.3077386812   -0.4748488582
H       -0.8441006006   -0.8136438092    1.2642414630
H       -0.4121213997   -1.3446863740   -0.3625115438
O       -1.8331035911    0.0812938419   -0.3502322506
H       -1.9199787592    0.9914140425    0.0121389786
