12   
Generated by ForceBalance from qchem.out: Frame 8 of 8
C        1.8779242689   -0.1290878653    0.1328560618
C        0.5223295801    0.4976463583   -0.1853125437
H        1.8795382948   -0.5461984278    1.1413592058
H        2.6772486670    0.6110943484    0.0725340181
H        2.1195774990   -0.9356930137   -0.5631880630
H        0.3005077858    1.2722105018    0.5518280287
C       -0.6169363118   -0.5106137372   -0.1191220081
H        0.5357547585    0.9865095071   -1.1616168358
H       -0.4006962037   -1.2745551827    0.6345724089
H       -0.7503973796   -1.0205466082   -1.0767149201
O       -1.8305884113    0.1814030127    0.2771798952
H       -2.5469494359   -0.1363750929   -0.3138451726
