12   
Generated by ForceBalance from qchem.out: Frame 7 of 7
C        1.8598360062   -0.1192281743    0.1716954806
C        0.5258169873    0.5022475580   -0.2367909046
H        1.8097716511   -0.4942460441    1.1949896137
H        2.6681079583    0.6113538966    0.1163636686
H        2.1213322550   -0.9556651806   -0.4796501192
H        0.3025673372    1.3133533841    0.4644733311
C       -0.6226376120   -0.5042471942   -0.1871931883
H        0.5923476420    0.9571973025   -1.2274975011
H       -0.4133466260   -1.2536682014    0.5833493616
H       -0.7326251599   -1.0266599533   -1.1393371170
O       -1.9080854233    0.0923694545    0.1161763754
H       -1.7216674239    0.9908260910    0.4633694925
