12   
Generated by ForceBalance from qchem.out: Frame 8 of 8
C        1.6123835486   -0.4699172925   -0.1434520083
C        0.6129871944    0.5823568447    0.3297676413
H        1.2157990953   -1.4763365733    0.0065687389
H        2.5551185607   -0.3999289652    0.4017240146
H        1.8292817959   -0.3465441287   -1.2063914563
H        0.4244604156    0.4936734129    1.4008303576
C       -0.7315812045    0.4920475743   -0.3829759233
H        1.0379668044    1.5762423176    0.1607620220
H       -0.6105659477    0.1755673750   -1.4222960757
H       -1.2241274102    1.4664881451   -0.3881671690
O       -1.6351479534   -0.3944649807    0.3313377467
H       -1.6787365075   -1.2297175400   -0.1824009216
