12   
Generated by ForceBalance from qchem.out: Frame 8 of 8
C        1.6280183640   -0.4232068170   -0.2101281584
C        0.5918244470    0.5218563817    0.3943434244
H        1.2558249569   -1.4494540034   -0.2378484726
H        2.5561523165   -0.4164361692    0.3637525802
H        1.8613134828   -0.1259576167   -1.2335431166
H        0.4165101490    0.2962628519    1.4505129139
C       -0.7439890540    0.4986483766   -0.3445240320
H        0.9895803350    1.5403324981    0.3708917856
H       -0.5919453610    0.2876154717   -1.4061782828
H       -1.2413483254    1.4683660227   -0.2612585454
O       -1.6721167924   -0.4884122573    0.1775773201
H       -1.2140538862   -0.9383969728    0.9193220155
