12   
Generated by ForceBalance from qchem.out: Frame 8 of 8
C        1.7003087230   -0.4244922087   -0.0845140232
C        0.5853822321    0.5224982517    0.3545210189
H        1.3718103672   -1.4649387840   -0.0331422460
H        2.5827066538   -0.3231389144    0.5496814785
H        2.0018430301   -0.2181430473   -1.1133013595
H        0.3125607261    0.3492720690    1.3965145948
C       -0.6904812072    0.3849432173   -0.4811840264
H        0.9514537003    1.5505406976    0.2899680146
H       -0.4892008248   -0.1071643709   -1.4361612429
H       -1.1116866068    1.3676885739   -0.7007769019
O       -1.7268167943   -0.3212218703    0.2543362546
H       -1.7764360803   -1.2255040813   -0.1241801848
