12   
Generated by ForceBalance from qchem.out: Frame 12 of 12
C        1.4505872234   -0.5560335054    0.0602427205
C        0.6550462987    0.7181549514   -0.2166029526
H        1.3827757375   -0.8437491835    1.1104527430
H        2.5028990395   -0.4071663587   -0.1867159114
H        1.0871830713   -1.3941733945   -0.5330099314
H        1.1106135171    1.5701486702    0.2937709055
C       -0.8164907938    0.6295337910    0.2024806647
H        0.7132638593    0.9375659888   -1.2872300961
H       -1.4229400109    1.3271233576   -0.3844205567
H       -0.9260055189    0.8957160063    1.2544508104
O       -1.3742270107   -0.7030465491    0.1291250020
H       -1.0796051490   -1.0774100119   -0.7312971417
