12   
Generated by ForceBalance from qchem.out: Frame 8 of 8
C        1.4188665620   -0.5931532599    0.0038661087
C        0.6920166926    0.7501522344   -0.0023472239
H        1.1776628398   -1.1674589784    0.8971459224
H        2.4974951853   -0.4278933912   -0.0202487289
H        1.1419870334   -1.1947576760   -0.8603660370
H        1.0282017104    1.3406615127    0.8528454152
C       -0.8427057780    0.6380734617    0.0355180528
H        0.9883875062    1.3103041960   -0.8920474670
H       -1.2801735152    1.1152655649   -0.8462038515
H       -1.2473116095    1.1442190002    0.9175871310
O       -1.2249914850   -0.7602297951    0.0686461058
H       -2.1826332269   -0.7804173469   -0.1536373835
