12   
Generated by ForceBalance from qchem.out: Frame 12 of 12
C        1.4544199453   -0.5400029322    0.1143219469
C        0.6549648357    0.7411406710   -0.1259355789
H        1.2365383340   -0.9752417586    1.0915836195
H        2.5236430747   -0.3282112240    0.0714283356
H        1.2572476769   -1.2952939105   -0.6489344493
H        1.0285810152    1.5379736050    0.5207285078
C       -0.8565856762    0.6077255923    0.1074787981
H        0.8377627479    1.0670609636   -1.1534204924
H       -1.3988163380    1.3264376084   -0.5114265527
H       -1.0818444589    0.8328033787    1.1535804323
O       -1.4118825126   -0.7049561756   -0.1493931113
H       -0.6751840888   -1.2819598725   -0.4372287032
