12   
Generated by ForceBalance from qchem.out: Frame 12 of 12
C        1.5489600232   -0.4974025490    0.1665475144
C        0.6238922039    0.6187203323   -0.3084548090
H        1.7088570501   -0.4334027772    1.2447154273
H        2.5230634034   -0.4386903736   -0.3218265482
H        1.1127222058   -1.4717707039   -0.0556633945
H        1.0579034596    1.5904228239   -0.0548772576
C       -0.7582242752    0.5303647429    0.3091201897
H        0.5072871143    0.5915433268   -1.3935488487
H       -1.3077808162    1.4655457929    0.1566510768
H       -0.6923093938    0.3454887166    1.3869134362
O       -1.4481510452   -0.5568227049   -0.3558994218
H       -2.3424830772   -0.6062090198    0.0509828890
