12   
Generated by ForceBalance from qchem.out: Frame 7 of 7
C        1.5203725710   -0.5354721771   -0.1242851909
C        0.6465378282    0.6516470044    0.2659882289
H        1.0795811835   -1.4636186905    0.2365381668
H        2.5221069855   -0.4391428951    0.2975701558
H        1.6183578894   -0.6051780622   -1.2098805105
H        0.5735771610    0.7196787939    1.3539770210
C       -0.7558878789    0.5528997686   -0.3009955853
H        1.0935100751    1.5872183431   -0.0830975144
H       -0.7167881147    0.5166593682   -1.3951822467
H       -1.3559569644    1.4218952165   -0.0103213153
O       -1.3510950854   -0.6611084232    0.2189942821
H       -2.1445181289   -0.8388824497   -0.3338359044
