12   
Generated by ForceBalance from qchem.out: Frame 12 of 12
C        1.5068955872   -0.5104424679    0.1847682210
C        0.6300474041    0.6501913690   -0.2751496091
H        1.5924323309   -0.5185725345    1.2728460049
H        2.5119317024   -0.4366495733   -0.2333714646
H        1.0749362038   -1.4632099462   -0.1210745911
H        1.0584348189    1.6021407352    0.0522987287
C       -0.7936976870    0.5517305915    0.2496073230
H        0.5988599074    0.6888191947   -1.3693026396
H       -1.3735647367    1.4285433492   -0.0593948510
H       -0.8058092878    0.5030863346    1.3391364399
O       -1.4616375604   -0.6564788589   -0.1853108715
H       -1.2557284193   -0.7424944313   -1.1438064345
