12   
Generated by ForceBalance from qchem.out: Frame 12 of 12
C        1.7921781579   -0.0606955157   -0.3155017188
C        0.5526601900    0.4146679350    0.4399135351
H        2.1073442694   -1.0449678869    0.0355206183
H        2.6286995699    0.6265579654   -0.1783642907
H        1.5927742898   -0.1381339773   -1.3863659056
H        0.7885447332    0.5054594208    1.5026525995
C       -0.6601796217   -0.5104026548    0.2476519328
H        0.2741877821    1.4191258562    0.1110901685
H       -1.0350560062   -0.8867912741    1.1989852882
H       -0.3811226800   -1.3748129707   -0.3653091918
O       -1.7994465358    0.1546502706   -0.3495944402
H       -1.4383243605    0.6825597850   -1.0963323687
