12   
Generated by ForceBalance from qchem.out: Frame 7 of 7
C        1.4734230567   -0.5684226780   -0.0901362942
C        0.6780759352    0.7019992824    0.1892213982
H        1.0592296810   -1.4031685731    0.4713487267
H        2.5192980306   -0.4391433134    0.1930296125
H        1.4435766514   -0.8268206171   -1.1512311133
H        0.7281694155    0.9231552787    1.2584686838
C       -0.7840589850    0.5885770381   -0.2212789549
H        1.1151877315    1.5605410131   -0.3286791263
H       -0.8635455034    0.6583808729   -1.3101404419
H       -1.3764594306    1.4007407724    0.2098130376
O       -1.3197934319   -0.6845079946    0.2246241294
H       -1.8301821110   -1.0527455169   -0.5277874928
