12   
Generated by ForceBalance from qchem.out: Frame 8 of 8
C        1.8678301033   -0.1014695557   -0.1497283549
C        0.5172613433    0.5016817805    0.2307566017
H        2.1209867906   -0.9435156826    0.4976894005
H        2.6670305100    0.6361833113   -0.0642291291
H        1.8494289261   -0.4643226221   -1.1785962578
H        0.5504934573    0.9415202887    1.2297133243
C       -0.6212069325   -0.5135424852    0.1321154825
H        0.3056457363    1.3243837587   -0.4604923881
H       -0.7699549947   -1.0424530949    1.0741684940
H       -0.3754000483   -1.2577300845   -0.6340908956
O       -1.8996644873    0.0799736801   -0.1974721568
H       -1.6985924815    0.8718287184   -0.7421915574
