12   
Generated by ForceBalance from qchem.out: Frame 8 of 8
C        1.7434103980   -0.3655714957    0.0627715141
C        0.5628092082    0.5029998533   -0.3642337772
H        2.0601745062   -0.1164845490    1.0773030570
H        2.6000245420   -0.2270344212   -0.5991309230
H        1.4692622170   -1.4219006593    0.0452643844
H        0.8671801054    1.5532451005   -0.3454875331
C       -0.6742688959    0.3005653010    0.5214521768
H        0.2782999105    0.2750980538   -1.3931283026
H       -1.0927710181    1.2573009806    0.8451606539
H       -0.4185066730   -0.2650624216    1.4185420991
O       -1.6979435835   -0.4837985640   -0.1445571292
H       -2.2674332328    0.1617405871   -0.6172169823
