12   
Generated by ForceBalance from qchem.out: Frame 8 of 8
C        1.8824908526   -0.1401299632   -0.0629175444
C        0.5162236730    0.5351520553    0.0365236124
H        2.0737698252   -0.7774442442    0.8031409413
H        2.6838135538    0.5980935023   -0.1168421999
H        1.9392468070   -0.7642194214   -0.9565408539
H        0.4837944169    1.2035970962    0.9016416878
C       -0.6188731616   -0.4744671435    0.1245851854
H        0.3395964166    1.1506798300   -0.8480612514
H       -0.6130283900   -0.9939313669    1.0884480054
H       -0.5102177081   -1.2261143333   -0.6585197288
O       -1.9092889758    0.1294135983   -0.1290725067
H       -2.1326312285    0.6390928752    0.6818879509
