12   
Generated by ForceBalance from qchem.out: Frame 7 of 7
C        1.4263540005   -0.5883544770   -0.0470082336
C        0.6865711088    0.7420222797    0.0751522993
H        1.0872991725   -1.2903994213    0.7116893719
H        2.4986446943   -0.4284483277    0.0787707026
H        1.2612861075   -1.0480206391   -1.0217541291
H        0.8992643242    1.1629881318    1.0607603356
C       -0.8338381362    0.6301919922   -0.1084037312
H        1.0783025503    1.4562597098   -0.6526978151
H       -1.1282275401    1.0058865446   -1.0939625247
H       -1.3567475525    1.2294687653    0.6424153557
O       -1.2278023253   -0.7610466439   -0.0036434540
H       -2.2035904269   -0.7549201539    0.1182619086
