12   
Generated by ForceBalance from qchem.out: Frame 9 of 9
C        1.4240222730   -0.5968391545    0.0056702654
C        0.6947568834    0.7450351973    0.0242020997
H        1.1396648166   -1.2117625962    0.8583546365
H        2.5020397011   -0.4302546296    0.0437512356
H        1.1926408398   -1.1581155382   -0.8981119854
H        0.9776442494    1.2913773536    0.9267207214
C       -0.8391701366    0.6310608578   -0.0353658093
H        1.0418827224    1.3496343788   -0.8167274881
H       -1.2249349905    1.1519958655   -0.9164833584
H       -1.2972194728    1.0921201856    0.8452907595
O       -1.2181796191   -0.7671857000   -0.0960634807
H       -2.1607776968   -0.7762400445   -0.3758660426
