12   
Generated by ForceBalance from qchem.out: Frame 8 of 8
C        1.8567544722   -0.2010118383    0.1573228948
C        0.5488528722    0.5430443770   -0.1061103170
H        1.7674232398   -0.8358892637    1.0409149343
H        2.6799884737    0.4950802784    0.3254617654
H        2.1294415488   -0.8395890788   -0.6859121890
H        0.3004658516    1.1538956729    0.7645901401
C       -0.6262066203   -0.4039096900   -0.3469052528
H        0.6543659036    1.2290536962   -0.9485500868
H       -0.4598299849   -1.3492150664    0.1772413589
H       -0.7385340351   -0.6345383294   -1.4079573608
O       -1.8770467365    0.1892950809    0.0915925552
H       -2.1135173728   -0.2579304549    0.9318716927
