12   
Generated by ForceBalance from qchem.out: Frame 7 of 7
C        1.4665623000   -0.5535606875   -0.1007502993
C        0.6637060813    0.7000431679    0.2328760630
H        1.0486027201   -1.4181872999    0.4108104245
H        2.5075778340   -0.4355519807    0.2045831569
H        1.4502695773   -0.7567290579   -1.1735779202
H        0.6928919847    0.8645001827    1.3129129012
C       -0.7881369125    0.6017629196   -0.2044621141
H        1.1069346665    1.5833559042   -0.2353287782
H       -0.8650293191    0.7099651925   -1.2925739167
H       -1.3822294502    1.3967822304    0.2568094869
O       -1.2852938869   -0.7023615350    0.1834108810
H       -2.2650780234   -0.6521633750    0.1164279907
