12   
Generated by ForceBalance from qchem.out: Frame 8 of 8
C        1.4480960230   -0.5882406486    0.0660768966
C        0.6970260069    0.7263793335   -0.1191899203
H        1.3226305829   -0.9797993746    1.0774518985
H        2.5155253417   -0.4415964987   -0.1078285842
H        1.0788610534   -1.3388236598   -0.6288566636
H        1.1073863346    1.5047837402    0.5293204193
C       -0.8066527933    0.6126655627    0.1469130800
H        0.8534164541    1.0683058647   -1.1455083780
H       -1.3656216399    1.3454814346   -0.4413537990
H       -1.0050119786    0.8167051340    1.2027376370
O       -1.2798967677   -0.7214976870   -0.1744605974
H       -1.8616249772   -0.9959661416    0.5659066013
