12   
Generated by ForceBalance from qchem.out: Frame 8 of 8
C        1.8908087263   -0.1378144583   -0.0047267838
C        0.5181194786    0.5302090043    0.0240435824
H        2.0155978194   -0.8151522207    0.8428149671
H        2.6892776464    0.6041433742    0.0407559141
H        2.0261557229   -0.7184823659   -0.9195569718
H        0.4051423542    1.1293763137    0.9299007474
C       -0.6110671810   -0.4813731079   -0.0222812481
H        0.4060333538    1.2110069936   -0.8224627352
H       -0.5345920067   -1.1668644685    0.8266504584
H       -0.5591939739   -1.0789047418   -0.9379225089
O       -1.8749258043    0.2312147650    0.0085797344
H       -2.4481476742   -0.2377898290    0.6521133672
