12   
Generated by ForceBalance from qchem.out: Frame 12 of 12
C       -1.7412117496    0.0655364932    0.3722703637
C       -0.5659581468    0.2070004307   -0.5928478326
H       -2.0629059592   -0.9752633304    0.4326517696
H       -2.5951614526    0.6631965029    0.0489445121
H       -1.4656378387    0.3880816990    1.3785492102
H       -0.8799006957   -0.1386605247   -1.5811915399
C        0.6751679510   -0.5785114217   -0.1516020137
H       -0.2941049286    1.2583045890   -0.7231995895
H        1.1251733687   -1.1043708861   -0.9955158874
H        0.4018856170   -1.3251571436    0.6003433565
O        1.7303145530    0.2565423183    0.3923250994
H        1.3247379232    1.1293154689    0.5834477773
