12   
Generated by ForceBalance from qchem.out: Frame 8 of 8
C        1.6391925858   -0.4368925609   -0.1627408123
C        0.5975614715    0.5391478599    0.3776600206
H        1.2668600204   -1.4616729403   -0.1156644573
H        2.5658424638   -0.3864326506    0.4116143862
H        1.8764876604   -0.2101370604   -1.2038255659
H        0.3969045680    0.3568758352    1.4343286367
C       -0.7304841757    0.4594412152   -0.3640062975
H        0.9893669824    1.5571667212    0.2963385330
H       -0.5847706240    0.1778277562   -1.4120285367
H       -1.2316198844    1.4315837792   -0.3448314760
O       -1.5620707144   -0.5250384081    0.3061135782
H       -2.4924428753   -0.2406090888    0.1716970664
