12   
Generated by ForceBalance from qchem.out: Frame 8 of 8
C       -1.6673619820   -0.4041803038    0.1522774917
C       -0.5787251211    0.4641348027   -0.4763817912
H       -1.3236913094   -1.4298572946    0.3064654774
H       -2.5564626483   -0.4448774121   -0.4790320978
H       -1.9604782851   -0.0042399410    1.1242238446
H       -0.3256025934    0.1203368042   -1.4824930129
C        0.7025378010    0.5109116958    0.3519174654
H       -0.9658638501    1.4806363781   -0.5890135586
H        0.4674948690    0.4489497490    1.4198628615
H        1.2458836699    1.4407705772    0.1793947460
O        1.6413457689   -0.5353517492   -0.0040065539
H        1.0997017971   -1.2935059079   -0.3165946150
