12   
Generated by ForceBalance from qchem.out: Frame 8 of 8
C        1.8784030853   -0.1262473896   -0.1264779586
C        0.5204413591    0.5010435869    0.1809452699
H        2.1239769027   -0.9184291114    0.5845587368
H        2.6748611336    0.6180698509   -0.0814123771
H        1.8804053331   -0.5626372467   -1.1267847507
H        0.5326969428    1.0026488870    1.1512009455
C       -0.6162642781   -0.5126027295    0.1238199543
H        0.2978170487    1.2653095903   -0.5664544761
H       -0.7416365808   -1.0285900536    1.0788800580
H       -0.3983585799   -1.2713098327   -0.6331076989
O       -1.8463622493    0.1450046643   -0.2822009424
H       -2.4925995078    0.0186032160    0.4451218147
