12   
Generated by ForceBalance from qchem.out: Frame 8 of 8
C        1.8983795497   -0.1212045183   -0.0289012197
C        0.5133555243    0.5191110069    0.0316092054
H        2.0829448918   -0.7468113552    0.8468331637
H        2.6811512173    0.6374680306   -0.0684243516
H        1.9926100466   -0.7495478286   -0.9161008589
H        0.4396776499    1.1828235705    0.8984258142
C       -0.6008006345   -0.5151616559    0.0888169127
H        0.3528684959    1.1335351353   -0.8577505032
H       -0.6112452591   -1.0152385765    1.0638493868
H       -0.4553524452   -1.2769682228   -0.6779892618
O       -1.8998213055    0.0525325331   -0.2005053539
H       -1.9451043753    0.8896096702    0.3143778013
