12   
Generated by ForceBalance from qchem.out: Frame 8 of 8
C        1.7065637807   -0.4058342597   -0.0990571215
C        0.5935850201    0.5055590552    0.4111472076
H        1.3698455716   -1.4434559980   -0.1319530256
H        2.5870424373   -0.3557481053    0.5438632644
H        2.0094190929   -0.1163618785   -1.1070389189
H        0.3171779348    0.2534908271    1.4358640326
C       -0.6687674823    0.4323334474   -0.4409269524
H        0.9574857363    1.5372483167    0.4204096877
H       -0.4299539042    0.2097578746   -1.4851569683
H       -1.1958434298    1.3896908902   -0.4168201007
O       -1.5340984045   -0.6115239044    0.0850003195
H       -2.4406646568   -0.2375747242    0.1082229232
