12   
Generated by ForceBalance from qchem.out: Frame 7 of 7
C        1.4314657714   -0.5819433802    0.1015723207
C        0.6717267583    0.7081799041   -0.1866441352
H        1.3801034119   -0.8436087247    1.1612936081
H        2.4844775315   -0.4796797876   -0.1653287427
H        1.0047700911   -1.4034080272   -0.4705120505
H        1.1234301623    1.5572659461    0.3342426157
C       -0.8003260930    0.6274045101    0.2004786825
H        0.7397228599    0.9239044966   -1.2559939926
H       -1.3673959944    1.4451831988   -0.2508857816
H       -0.9033539696    0.7111975024    1.2859857496
O       -1.3772132840   -0.6267370406   -0.2504013609
H       -1.6985145552   -1.0922307731    0.5505119928
