12   
Generated by ForceBalance from qchem.out: Frame 6 of 6
C       -1.7335956934    0.3352479561    0.2114773299
C       -0.5718183544   -0.3586681892   -0.4964047971
H       -2.0335135976   -0.2284140275    1.0962046131
H       -2.6029129765    0.4221791393   -0.4424785814
H       -1.4507833173    1.3390892866    0.5345135142
H       -0.8885362077   -1.3613164399   -0.7950642314
C        0.6884962594   -0.4635187934    0.3720304843
H       -0.3265343715    0.1597693952   -1.4281534154
H        1.1213276220   -1.4642878656    0.3003020268
H        0.4447676613   -0.2802078234    1.4217461383
O        1.7386821346    0.4678584487    0.0011589466
H        1.3999027287    0.9863048107   -0.7590060362
