12   
Generated by ForceBalance from qchem.out: Frame 7 of 7
C        1.6552219861   -0.4266392928   -0.1237364992
C        0.6064965804    0.5588755793    0.3882511735
H        1.3002914884   -1.4573863397   -0.0505341599
H        2.5809395007   -0.3574560326    0.4498653581
H        1.8923684725   -0.2275394857   -1.1705390137
H        0.3997767773    0.4027417901    1.4484389622
C       -0.7187472412    0.4707019324   -0.3636920257
H        1.0026441227    1.5735581880    0.2873429788
H       -0.5590484042    0.2392883837   -1.4217110701
H       -1.2531351264    1.4192427701   -0.3057665424
O       -1.6316892100   -0.4788482234    0.2401943790
H       -1.2944794718   -1.3711183167    0.0001653094
