12   
Generated by ForceBalance from qchem.out: Frame 7 of 7
C        1.5832952715   -0.4584547434   -0.1644979055
C        0.5945046743    0.5832171881    0.3565496714
H        1.2044417062   -1.4752157740   -0.0404951759
H        2.5360799284   -0.3959316742    0.3633934537
H        1.7738007904   -0.3057249971   -1.2281494375
H        0.4306964116    0.4635936915    1.4312834828
C       -0.7540883325    0.5295171329   -0.3455177353
H        1.0209000014    1.5806359299    0.2174850382
H       -0.6130379397    0.4762266455   -1.4297677301
H       -1.3388034949    1.4242579513   -0.1224427227
O       -1.5667844803   -0.5948481816    0.0773426967
H       -0.9664864620   -1.2112419818    0.5497833739
