12   
Generated by ForceBalance from qchem.out: Frame 9 of 9
C        1.6568315284   -0.4534311143    0.1068444996
C        0.6146266511    0.5639823317   -0.3474503840
H        1.9146417147   -0.3007215841    1.1567249144
H        2.5740173558   -0.3740112341   -0.4791538060
H        1.2729444533   -1.4692374331   -0.0050559459
H        1.0128129311    1.5731093360   -0.2066721305
C       -0.7006728439    0.4383579977    0.4081923550
H        0.3947535510    0.4531648675   -1.4106066871
H       -1.2170478674    1.4016195268    0.4567270899
H       -0.5295416504    0.0989226095    1.4331985735
O       -1.5558919047   -0.4922634571   -0.3109733720
H       -1.9483787468   -1.0954381598    0.3567760834
