12   
Generated by ForceBalance from qchem.out: Frame 8 of 8
C        1.7725410516   -0.1812773891    0.3035484390
C        0.5680839194    0.5042474172   -0.3371703960
H        1.5322790119   -0.5128183756    1.3154916188
H        2.6263537087    0.4957791486    0.3647575530
H        2.0810390782   -1.0558719119   -0.2729484491
H        0.2830998085    1.3820041435    0.2450943147
C       -0.6632064633   -0.4004444247   -0.4129791889
H        0.8361625315    0.8601566217   -1.3343106194
H       -0.4443584871   -1.3833729837    0.0166956405
H       -0.9880132274   -0.5551881899   -1.4469949608
O       -1.7228180698    0.2414171105    0.3422316301
H       -2.4109054581   -0.4458316919    0.4907870512
