12   
Generated by ForceBalance from qchem.out: Frame 7 of 7
C        1.6859636053   -0.4168883365   -0.1430788386
C        0.6012843159    0.5059544913    0.4054640472
H        1.3259836800   -1.4463542451   -0.1850613274
H        2.5827064526   -0.3946055537    0.4784496686
H        1.9685869668   -0.1160973250   -1.1532624677
H        0.3825068279    0.2657983680    1.4493361790
C       -0.6976843047    0.4341205507   -0.3979554557
H        0.9705586160    1.5357989585    0.3972760076
H       -0.5072330096    0.1537366136   -1.4338450209
H       -1.2030773561    1.4058704747   -0.4005927507
O       -1.6060522826   -0.5761264286    0.1031760334
H       -1.7974029923   -0.3167459857    1.0321224440
