12   
Generated by ForceBalance from qchem.out: Frame 8 of 8
C        1.8832731286   -0.1390832497    0.1371197481
C        0.5447735868    0.5234995373   -0.1807026252
H        1.8588643739   -0.5941352941    1.1288005833
H        2.6960172338    0.5886436180    0.1200540626
H        2.1242231931   -0.9227895645   -0.5848083321
H        0.3238430272    1.2743825084    0.5808481623
C       -0.6136269037   -0.4649300132   -0.1711757253
H        0.5838336732    1.0478928386   -1.1376747605
H       -0.4243585836   -1.2601207134    0.5569930853
H       -0.7399143574   -0.9364653571   -1.1492149115
O       -1.8212805400    0.2349755424    0.2296496754
H       -2.5328081331   -0.0473301010   -0.3847372699
