12   
Generated by ForceBalance from qchem.out: Frame 9 of 9
C        1.7097798855   -0.4108185998   -0.0331754755
C        0.5931182100    0.5591714507    0.3415600048
H        1.3733002124   -1.4435637321    0.0736221523
H        2.5871866348   -0.2725687971    0.6009407062
H        2.0169943467   -0.2607442241   -1.0697843419
H        0.3162109368    0.4480710699    1.3914660711
C       -0.6644226775    0.3627314869   -0.5035347508
H        0.9559924354    1.5837603207    0.2143529406
H       -0.4123041148   -0.0344218843   -1.4888973196
H       -1.1852123116    1.3117741540   -0.6536874412
O       -1.5623584352   -0.5969377782    0.1177210334
H       -2.2980806988   -0.0747530748    0.5025764478
