12   
Generated by ForceBalance from qchem.out: Frame 8 of 8
C        1.8897938798   -0.1208746927   -0.0218334680
C        0.5030534881    0.5177335491   -0.0096292724
H        2.0348049390   -0.7534427372    0.8558063242
H        2.6720097183    0.6392520634   -0.0214674821
H        2.0242322374   -0.7413711739   -0.9095860604
H        0.4044980815    1.1675799436    0.8655593242
C       -0.6088167009   -0.5170023335    0.0252563491
H        0.3699101224    1.1461169109   -0.8944759713
H       -0.5013375001   -1.1496292647    0.9123060165
H       -0.5624479066   -1.1603492329   -0.8560818753
O       -1.9297985007    0.0788355782    0.0370837249
H       -1.8020834043    1.0256530420    0.2636894203
