12   
Generated by ForceBalance from qchem.out: Frame 8 of 8
C        1.7810724746   -0.1392712070    0.3143193664
C        0.5691989818    0.4596458653   -0.3954429352
H        1.5497613535   -0.3440424429    1.3612445930
H        2.6331240847    0.5420706814    0.2841917241
H        2.0878308469   -1.0776529248   -0.1523410726
H        0.2872387568    1.4016255876    0.0778923105
C       -0.6607500065   -0.4482892871   -0.3475097771
H        0.8261829716    0.6917260210   -1.4311769092
H       -0.4408693789   -1.3719562247    0.1987067611
H       -0.9920179168   -0.7276563542   -1.3528300794
O       -1.7107584600    0.2856113456    0.3319945211
H       -2.4928637477   -0.3115231553    0.3540985184
