12   
Generated by ForceBalance from qchem.out: Frame 8 of 8
C        1.6844923135   -0.4158966404    0.1523015576
C        0.5913424956    0.5053173883   -0.3827873747
H        1.9700605664   -0.1321391195    1.1671211629
H        2.5792605560   -0.3746601577   -0.4712907729
H        1.3379358944   -1.4509995465    0.1750822290
H        0.9604413845    1.5341787468   -0.3820897402
C       -0.7039375601    0.4249919154    0.4227887966
H        0.3464630208    0.2578731860   -1.4168311746
H       -1.1155385650    1.4204743801    0.6168315937
H       -0.5293212989   -0.0567471578    1.3892269923
O       -1.6656401331   -0.3353135630   -0.3567578421
H       -2.2543950602   -0.7881876166    0.2867603112
