12   
Generated by ForceBalance from qchem.out: Frame 8 of 8
C        1.4308803334   -0.6043286838   -0.0095355558
C        0.7008503321    0.7333069414    0.0724611027
H        1.0893262683   -1.2795635908    0.7722298815
H        2.5056229855   -0.4514600241    0.1040062442
H        1.2584695103   -1.0950626102   -0.9681717344
H        0.9169477639    1.1840463038    1.0439139602
C       -0.8257790400    0.6199857995   -0.1027923361
H        1.0975512147    1.4233986746   -0.6763071478
H       -1.1202803046    0.9998823326   -1.0836054348
H       -1.3461665771    1.2196364776    0.6468851460
O       -1.2861193692   -0.7508146974    0.0385635478
H       -1.7163016834   -0.9905997475   -0.8091931620
