12   
Generated by ForceBalance from qchem.out: Frame 12 of 12
C        1.4678306830   -0.5248144821    0.1295081688
C        0.6416947379    0.7222730455   -0.1834563510
H        1.3317686934   -0.8472023467    1.1645796373
H        2.5298085315   -0.3253922098   -0.0199037884
H        1.2101529001   -1.3574548979   -0.5275023217
H        1.0484090306    1.5830651887    0.3532428926
C       -0.8365546429    0.5970222316    0.1811639449
H        0.7343454329    0.9435126870   -1.2500240299
H       -1.4220119616    1.3843702924   -0.2947201771
H       -0.9460158274    0.7046723945    1.2666682758
O       -1.4497766218   -0.6500667950   -0.2170359894
H       -0.7425018053   -1.3288354991   -0.1968618303
