12   
Generated by ForceBalance from qchem.out: Frame 9 of 9
C        1.6168850055   -0.4601501993    0.1462510970
C        0.6097239215    0.5828867761   -0.3327672551
H        1.8272262573   -0.3337809854    1.2100893425
H        2.5614296854   -0.3815342247   -0.3945461701
H        1.2341365927   -1.4721590151   -0.0038482718
H        1.0296416047    1.5794997658   -0.1678883794
C       -0.7355070437    0.4898554599    0.3808487673
H        0.4224063470    0.4883105175   -1.4035870327
H       -1.2380063588    1.4580700287    0.3667942703
H       -0.6135282977    0.1924413068    1.4263890647
O       -1.6494417758   -0.4009029455   -0.3101628485
H       -1.5039912281   -1.2963355065    0.0673745707
