12   
Generated by ForceBalance from qchem.out: Frame 11 of 11
C        1.5132750291   -0.5007901454    0.1289906628
C        0.6183430577    0.6575427738   -0.3106561430
H        1.5550727342   -0.5672749409    1.2179779584
H        2.5302991113   -0.3646395065   -0.2415006300
H        1.1630133566   -1.4633443929   -0.2486290742
H        1.0643015809    1.6031743379    0.0092781208
C       -0.7922912539    0.5856854075    0.2547765954
H        0.5618435309    0.6902003250   -1.4024562323
H       -1.3871033068    1.4319293489   -0.0947219216
H       -0.7514712573    0.6275205534    1.3484460416
O       -1.5126907270   -0.6107438334   -0.1284200867
H       -0.8482096170   -1.2405397791   -0.4795924265
