12   
Generated by ForceBalance from qchem.out: Frame 8 of 8
C        1.4478215407   -0.5601810363    0.1251047613
C        0.6661029770    0.7123534260   -0.1853032605
H        1.3712785500   -0.8199185933    1.1830602606
H        2.5044441801   -0.4294466860   -0.1144451636
H        1.0589120783   -1.3952121775   -0.4538585457
H        1.0880434471    1.5690131594    0.3475333419
C       -0.8059731184    0.6033066062    0.1756100488
H        0.7507365055    0.9312795135   -1.2527240707
H       -1.3769203211    1.4231595633   -0.2724443034
H       -0.9292059950    0.6595815564    1.2633488215
O       -1.2886225888   -0.6764802465   -0.2985543234
H       -2.2397287035   -0.7165042327   -0.0508753992
