12   
Generated by ForceBalance from qchem.out: Frame 8 of 8
C        1.4406420729   -0.5724645197   -0.1225752197
C        0.6802640295    0.7222579677    0.1481288903
H        1.1028227394   -1.3670176425    0.5398986939
H        2.5109770773   -0.4259485598    0.0315152217
H        1.2863740607   -0.9133548451   -1.1475422239
H        0.8474651216    1.0120716405    1.1903464261
C       -0.8244528221    0.6009445539   -0.1137939178
H        1.0746196424    1.5389603519   -0.4619987462
H       -1.0299799435    0.7771860702   -1.1704119132
H       -1.3875470923    1.3411103793    0.4622742883
O       -1.3445704188   -0.7305409085    0.1115869800
H       -1.3880429686   -0.8456338498    1.0881225762
