12   
Generated by ForceBalance from qchem.out: Frame 12 of 12
C        1.8894205320   -0.1135977366    0.0516614299
C        0.5057732945    0.5168613682   -0.0889484171
H        1.9728636997   -0.6496578519    0.9983198470
H        2.6719002511    0.6457610946    0.0224057178
H        2.0817708153   -0.8236467095   -0.7550770004
H        0.3440722823    1.2018425048    0.7494621645
C       -0.6065697977   -0.5208431045   -0.0716192402
H        0.4415090504    1.1090424712   -1.0054973496
H       -0.4312825114   -1.2371829331    0.7360148244
H       -0.6319736931   -1.0747425275   -1.0137705545
O       -1.9188524100    0.0568666295    0.1439312412
H       -1.7849872993    1.0249417041    0.2331431888
