12   
Generated by ForceBalance from qchem.out: Frame 12 of 12
C       -1.7529221501   -0.0779847200    0.3628069996
C       -0.5668212975    0.4161971824   -0.4626107767
H       -2.0785190264   -1.0594436146    0.0146588883
H       -2.6018742998    0.6036833705    0.2880216084
H       -1.4815443034   -0.1685639282    1.4162549140
H       -0.8683522966    0.4840358218   -1.5110484137
C        0.6669579620   -0.4892170814   -0.3483773135
H       -0.2987518395    1.4345849426   -0.1657094143
H        1.0917357094   -0.6761422034   -1.3390559433
H        0.4005088723   -1.4542897767    0.0871119345
O        1.7233744461    0.0562704614    0.4835574246
H        1.5190581600    1.0075718816    0.6062166294
