12   
Generated by ForceBalance from qchem.out: Frame 9 of 9
C        1.7391031718   -0.4011677531    0.0293421352
C        0.5875258236    0.5746545006    0.2622681471
H        1.4510658990   -1.4185969416    0.3030128507
H        2.6151882944   -0.1328241616    0.6222662451
H        2.0353748994   -0.4073552276   -1.0214350459
H        0.3103962174    0.6077668240    1.3168995817
C       -0.6741552096    0.2247308713   -0.5320054007
H        0.9186425348    1.5804250004   -0.0095961554
H       -0.4464582829   -0.4445287758   -1.3656268470
H       -1.1255596729    1.1267121883   -0.9491774076
O       -1.6936765601   -0.3535193258    0.3281391842
H       -1.7083772794   -1.3170044777    0.1413291606
