12   
Generated by ForceBalance from qchem.out: Frame 9 of 9
C        1.8529799068   -0.1359226154    0.1999587930
C        0.5326844667    0.4709664505   -0.2704255414
H        1.7830594126   -0.4395841105    1.2455167965
H        2.6703415917    0.5807283011    0.1080848178
H        2.1146783280   -1.0175387645   -0.3886579301
H        0.3160493025    1.3379231128    0.3628628883
C       -0.6327181622   -0.5102062618   -0.1536338029
H        0.6155668586    0.8456960954   -1.2929515349
H       -0.4429980073   -1.1994567924    0.6758675242
H       -0.7431740974   -1.1046241705   -1.0625128233
O       -1.9106694176    0.1290224240    0.0877453692
H       -1.7123686904    1.0490916477    0.3646767630
