12   
Generated by ForceBalance from qchem.out: Frame 8 of 8
C        1.9011028134   -0.1381273985   -0.0082178869
C        0.5290411883    0.5314325690   -0.0176979448
H        2.0350010243   -0.7474369032    0.8880439254
H        2.6997514715    0.6047563002   -0.0288740920
H        2.0268427468   -0.7881373864   -0.8767034729
H        0.4223186065    1.1960342678    0.8423175612
C       -0.5999075708   -0.4794026881    0.0141843187
H        0.4109333198    1.1469541657   -0.9116378338
H       -0.5399551539   -1.1021735353    0.9133388528
H       -0.5332633651   -1.1403312292   -0.8557457880
O       -1.8513807247    0.2516546103    0.0024785712
H       -2.5068993477   -0.3228745937   -0.4502282724
