12   
Generated by ForceBalance from qchem.out: Frame 8 of 8
C        1.6227560494   -0.4616019025    0.0676831711
C        0.6024548791    0.5909219740   -0.3541088002
H        1.9083920373   -0.3195085961    1.1113467819
H        2.5272948451   -0.4078274326   -0.5402623301
H        1.1997244444   -1.4620142985   -0.0331610502
H        1.0233943881    1.5902577769   -0.2055990280
C       -0.6992719120    0.4868200572    0.4293976841
H        0.3783980735    0.5072742790   -1.4217785460
H       -1.2761181211    1.4139931605    0.3414154684
H       -0.5080015940    0.3075211019    1.4875458795
O       -1.5099291021   -0.6327833157   -0.0015656240
H       -1.6976565242   -0.4679830178   -0.9530168269
