12   
Generated by ForceBalance from qchem.out: Frame 8 of 8
C        1.6939724392   -0.3693992141    0.2025853155
C        0.5791482635    0.4584505816   -0.4339096550
H        1.9742105224    0.0462208671    1.1717442074
H        2.5854318846   -0.3862103725   -0.4266691180
H        1.3778144769   -1.4025860137    0.3631213742
H        0.9315067320    1.4861576101   -0.5542834466
C       -0.7163041132    0.4567865395    0.3863211792
H        0.3531360544    0.1031915610   -1.4426939817
H       -1.1587345320    1.4523957753    0.4310921450
H       -0.5133967712    0.1338211414    1.4130119656
O       -1.7545834970   -0.3794663189   -0.1841486532
H       -1.2910241492   -1.1060449329   -0.6558357736
