12   
Generated by ForceBalance from qchem.out: Frame 9 of 9
C        1.7749202280   -0.1378783765    0.3313990886
C        0.5770125993    0.4846331272   -0.3816963393
H        1.5231002952   -0.3861768282    1.3640168932
H        2.6261911503    0.5449782074    0.3460267490
H        2.0909557634   -1.0557071471   -0.1681546798
H        0.2798623930    1.4140446442    0.1058171649
C       -0.6497295264   -0.4310570745   -0.4041164751
H        0.8645640040    0.7398420685   -1.4050262819
H       -0.3796783415   -1.4585732910   -0.1428832460
H       -1.0959795955   -0.4512603030   -1.4013799792
O       -1.6266413199    0.0534791131    0.5581943980
H       -2.4986762109    0.0288389284    0.1093966677
