12   
Generated by ForceBalance from qchem.out: Frame 8 of 8
C        1.6066146559   -0.4563196076   -0.1269669194
C        0.5963703920    0.5535462495    0.4121466177
H        1.1896505928   -1.4649230284   -0.1255393189
H        2.5191483366   -0.4653174451    0.4711206469
H        1.8775195366   -0.2106496770   -1.1549566311
H        0.3858003622    0.3715546490    1.4708792671
C       -0.7171431333    0.5417406916   -0.3552033676
H        1.0239077897    1.5589157885    0.3572719423
H       -0.5385353741    0.5148143471   -1.4321177056
H       -1.2922376682    1.4446972231   -0.1275632715
O       -1.5440252314   -0.6073225788   -0.0374273307
H       -1.1728877788   -0.9951216920    0.7846651960
